15561101
  -OEChem-08012512503D

 21 22  0     0  0  0  0  0  0999 V2000
    3.2904   -1.5089   -0.0110 O   0  0  0  0  0  0  0  0  0  0  0  0
   -0.1881    1.7491   -0.0019 N   0  0  0  0  0  0  0  0  0  0  0  0
    3.8498    0.7149    0.0029 N   0  0  0  0  0  0  0  0  0  0  0  0
   -0.8294   -0.5739    0.0019 C   0  0  0  0  0  0  0  0  0  0  0  0
   -1.1444    0.8012   -0.0011 C   0  0  0  0  0  0  0  0  0  0  0  0
    0.5230   -0.9409    0.0038 C   0  0  0  0  0  0  0  0  0  0  0  0
    1.5107    0.0336    0.0030 C   0  0  0  0  0  0  0  0  0  0  0  0
   -1.8532   -1.5364    0.0028 C   0  0  0  0  0  0  0  0  0  0  0  0
   -2.4880    1.1652   -0.0029 C   0  0  0  0  0  0  0  0  0  0  0  0
    1.1053    1.3528    0.0001 C   0  0  0  0  0  0  0  0  0  0  0  0
   -3.1887   -1.1442    0.0008 C   0  0  0  0  0  0  0  0  0  0  0  0
   -3.5061    0.2084   -0.0021 C   0  0  0  0  0  0  0  0  0  0  0  0
    2.9186   -0.3211    0.0039 C   0  0  0  0  0  0  0  0  0  0  0  0
    0.7917   -1.9955    0.0061 H   0  0  0  0  0  0  0  0  0  0  0  0
   -1.6159   -2.5980    0.0050 H   0  0  0  0  0  0  0  0  0  0  0  0
   -2.7632    2.2184   -0.0053 H   0  0  0  0  0  0  0  0  0  0  0  0
    1.7842    2.1963   -0.0016 H   0  0  0  0  0  0  0  0  0  0  0  0
   -3.9770   -1.8906    0.0015 H   0  0  0  0  0  0  0  0  0  0  0  0
   -4.5455    0.5235   -0.0037 H   0  0  0  0  0  0  0  0  0  0  0  0
    3.6302    1.7029    0.0101 H   0  0  0  0  0  0  0  0  0  0  0  0
    4.8410    0.4954   -0.0034 H   0  0  0  0  0  0  0  0  0  0  0  0
  1 13  2  0  0  0  0
  2  5  1  0  0  0  0
  2 10  2  0  0  0  0
  3 13  1  0  0  0  0
  3 20  1  0  0  0  0
  3 21  1  0  0  0  0
  4  5  1  0  0  0  0
  4  6  1  0  0  0  0
  4  8  2  0  0  0  0
  5  9  2  0  0  0  0
  6  7  2  0  0  0  0
  6 14  1  0  0  0  0
  7 10  1  0  0  0  0
  7 13  1  0  0  0  0
  8 11  1  0  0  0  0
  8 15  1  0  0  0  0
  9 12  1  0  0  0  0
  9 16  1  0  0  0  0
 10 17  1  0  0  0  0
 11 12  2  0  0  0  0
 11 18  1  0  0  0  0
 12 19  1  0  0  0  0
M  END
> <PUBCHEM_COMPOUND_CID>
15561101

> <PUBCHEM_CONFORMER_RMSD>
0.4

> <PUBCHEM_CONFORMER_DIVERSEORDER>
1
2

> <PUBCHEM_MMFF94_PARTIAL_CHARGES>
20
1 -0.57
10 0.16
11 -0.15
12 -0.15
13 0.54
14 0.15
15 0.15
16 0.15
17 0.15
18 0.15
19 0.15
2 -0.62
20 0.37
21 0.37
3 -0.8
5 0.31
6 -0.15
7 0.09
8 -0.15
9 -0.15

> <PUBCHEM_EFFECTIVE_ROTOR_COUNT>
1

> <PUBCHEM_PHARMACOPHORE_FEATURES>
5
1 1 acceptor
1 2 acceptor
1 3 donor
6 2 4 5 6 7 10 rings
6 4 5 8 9 11 12 rings

> <PUBCHEM_HEAVY_ATOM_COUNT>
13

> <PUBCHEM_ATOM_DEF_STEREO_COUNT>
0

> <PUBCHEM_ATOM_UDEF_STEREO_COUNT>
0

> <PUBCHEM_BOND_DEF_STEREO_COUNT>
0

> <PUBCHEM_BOND_UDEF_STEREO_COUNT>
0

> <PUBCHEM_ISOTOPIC_ATOM_COUNT>
0

> <PUBCHEM_COMPONENT_COUNT>
1

> <PUBCHEM_CACTVS_TAUTO_COUNT>
2

> <PUBCHEM_CONFORMER_ID>
00ED718D00000001

> <PUBCHEM_MMFF94_ENERGY>
40.9957

> <PUBCHEM_FEATURE_SELFOVERLAP>
25.403

> <PUBCHEM_SHAPE_FINGERPRINT>
10608611 8 18411976966394672200
11132069 177 18410568474771759520
11769659 78 18411695495628324895
12032990 46 18410580577995069131
12932764 1 17346308328164895182
13024252 1 16298106480283418651
13296908 3 18411983550721740878
14144814 61 18410575080389347202
14325111 11 18410855443074971104
14911166 2 18409157806239082141
15536298 74 18270683185665013768
16945 1 18410294696671829257
18186145 218 17603865589771421158
193761 8 17689998259541674563
200 152 17988914605343113175
20201158 50 18412826884687994695
20510252 161 18272652303278562073
20871998 184 18201721760340928919
21267235 1 18410302401564005690
21501502 16 18267027330819018725
21501925 9 18339353175307404714
23402539 116 18202274798063569549
23402655 69 18196353846555205221
23463225 33 18409449167766388190
23552423 10 18189054377002939309
23559900 14 18341046320984323074
2748010 2 18338512074908956029
3312278 4 18409732880241686106
5104073 3 18410575076083740298
528886 8 18411694387647952043
7364860 26 18124877008503092128
8809292 202 18260553372037412875

> <PUBCHEM_SHAPE_MULTIPOLES>
251.7
5.92
1.67
0.6
2.13
0.06
0
-0.88
0
-0.18
0
-0.05
0
0.01

> <PUBCHEM_SHAPE_SELFOVERLAP>
554.836

> <PUBCHEM_SHAPE_VOLUME>
135.1

> <PUBCHEM_COORDINATE_TYPE>
2
5
10

$$$$
