23243694
  -OEChem-08022503253D

 51 54  0     1  0  0  0  0  0999 V2000
    1.6609    1.3064    1.5067 O   0  0  0  0  0  0  0  0  0  0  0  0
   -0.3905    3.0659    0.8191 O   0  0  0  0  0  0  0  0  0  0  0  0
    1.5658   -0.7186    2.5966 O   0  0  0  0  0  0  0  0  0  0  0  0
   -0.8196   -2.7932    0.2359 O   0  0  0  0  0  0  0  0  0  0  0  0
   -3.4389   -2.3858   -0.0535 O   0  0  0  0  0  0  0  0  0  0  0  0
    1.9120    0.5092   -0.6790 C   0  0  2  0  0  0  0  0  0  0  0  0
    1.1931   -0.5661    0.1708 C   0  0  2  0  0  0  0  0  0  0  0  0
    3.4568    0.3338   -0.8876 C   0  0  0  0  0  0  0  0  0  0  0  0
    1.5130    1.7373    0.1346 C   0  0  1  0  0  0  0  0  0  0  0  0
    1.7046   -1.9902   -0.0934 C   0  0  0  0  0  0  0  0  0  0  0  0
    3.7554   -1.1320   -1.2657 C   0  0  0  0  0  0  0  0  0  0  0  0
   -0.3345   -0.4122    0.0096 C   0  0  0  0  0  0  0  0  0  0  0  0
    3.2159   -2.1142   -0.2354 C   0  0  0  0  0  0  0  0  0  0  0  0
    0.0418    2.1005   -0.1341 C   0  0  1  0  0  0  0  0  0  0  0  0
    1.5072   -0.0596    1.5714 C   0  0  0  0  0  0  0  0  0  0  0  0
   -0.8752    0.8930   -0.1108 C   0  0  0  0  0  0  0  0  0  0  0  0
    4.3399    0.7379    0.3151 C   0  0  0  0  0  0  0  0  0  0  0  0
    3.8922    1.2307   -2.0714 C   0  0  0  0  0  0  0  0  0  0  0  0
   -1.2167   -1.5034    0.0405 C   0  0  0  0  0  0  0  0  0  0  0  0
   -2.2607    1.0680   -0.2455 C   0  0  0  0  0  0  0  0  0  0  0  0
   -3.1153   -0.0313   -0.2317 C   0  0  0  0  0  0  0  0  0  0  0  0
   -2.5946   -1.3130   -0.0841 C   0  0  0  0  0  0  0  0  0  0  0  0
   -4.5859    0.1869   -0.3713 C   0  0  0  0  0  0  0  0  0  0  0  0
   -4.9588    0.8283   -1.7206 C   0  0  0  0  0  0  0  0  0  0  0  0
   -5.1680    1.0217    0.7841 C   0  0  0  0  0  0  0  0  0  0  0  0
    1.4612    0.5473   -1.6820 H   0  0  0  0  0  0  0  0  0  0  0  0
    2.1541    2.6094   -0.0239 H   0  0  0  0  0  0  0  0  0  0  0  0
    1.2665   -2.3746   -1.0242 H   0  0  0  0  0  0  0  0  0  0  0  0
    1.4221   -2.6664    0.7218 H   0  0  0  0  0  0  0  0  0  0  0  0
    4.8361   -1.2857   -1.3783 H   0  0  0  0  0  0  0  0  0  0  0  0
    3.3091   -1.3633   -2.2422 H   0  0  0  0  0  0  0  0  0  0  0  0
    3.7007   -1.9675    0.7355 H   0  0  0  0  0  0  0  0  0  0  0  0
    3.4634   -3.1359   -0.5481 H   0  0  0  0  0  0  0  0  0  0  0  0
   -0.0345    2.5512   -1.1319 H   0  0  0  0  0  0  0  0  0  0  0  0
    4.1150    0.1683    1.2196 H   0  0  0  0  0  0  0  0  0  0  0  0
    5.3999    0.5662    0.0910 H   0  0  0  0  0  0  0  0  0  0  0  0
    4.2400    1.8016    0.5549 H   0  0  0  0  0  0  0  0  0  0  0  0
    4.9610    1.1137   -2.2850 H   0  0  0  0  0  0  0  0  0  0  0  0
    3.3462    0.9764   -2.9871 H   0  0  0  0  0  0  0  0  0  0  0  0
    3.7098    2.2895   -1.8586 H   0  0  0  0  0  0  0  0  0  0  0  0
   -2.6565    2.0743   -0.3598 H   0  0  0  0  0  0  0  0  0  0  0  0
    0.2072    3.8301    0.7534 H   0  0  0  0  0  0  0  0  0  0  0  0
   -5.1316   -0.7619   -0.3575 H   0  0  0  0  0  0  0  0  0  0  0  0
   -1.5981   -3.3764    0.2283 H   0  0  0  0  0  0  0  0  0  0  0  0
   -4.1751   -2.1829    0.5478 H   0  0  0  0  0  0  0  0  0  0  0  0
   -6.0472    0.8913   -1.8286 H   0  0  0  0  0  0  0  0  0  0  0  0
   -4.5726    0.2320   -2.5548 H   0  0  0  0  0  0  0  0  0  0  0  0
   -4.5572    1.8426   -1.8189 H   0  0  0  0  0  0  0  0  0  0  0  0
   -6.2580    1.0893    0.6979 H   0  0  0  0  0  0  0  0  0  0  0  0
   -4.7725    2.0430    0.7940 H   0  0  0  0  0  0  0  0  0  0  0  0
   -4.9357    0.5616    1.7510 H   0  0  0  0  0  0  0  0  0  0  0  0
  1  9  1  0  0  0  0
  1 15  1  0  0  0  0
  2 14  1  0  0  0  0
  2 42  1  0  0  0  0
  3 15  2  0  0  0  0
  4 19  1  0  0  0  0
  4 44  1  0  0  0  0
  5 22  1  0  0  0  0
  5 45  1  0  0  0  0
  6  7  1  0  0  0  0
  6  8  1  0  0  0  0
  6  9  1  0  0  0  0
  6 26  1  0  0  0  0
  7 10  1  0  0  0  0
  7 12  1  0  0  0  0
  7 15  1  0  0  0  0
  8 11  1  0  0  0  0
  8 17  1  0  0  0  0
  8 18  1  0  0  0  0
  9 14  1  0  0  0  0
  9 27  1  0  0  0  0
 10 13  1  0  0  0  0
 10 28  1  0  0  0  0
 10 29  1  0  0  0  0
 11 13  1  0  0  0  0
 11 30  1  0  0  0  0
 11 31  1  0  0  0  0
 12 16  1  0  0  0  0
 12 19  2  0  0  0  0
 13 32  1  0  0  0  0
 13 33  1  0  0  0  0
 14 16  1  0  0  0  0
 14 34  1  0  0  0  0
 16 20  2  0  0  0  0
 17 35  1  0  0  0  0
 17 36  1  0  0  0  0
 17 37  1  0  0  0  0
 18 38  1  0  0  0  0
 18 39  1  0  0  0  0
 18 40  1  0  0  0  0
 19 22  1  0  0  0  0
 20 21  1  0  0  0  0
 20 41  1  0  0  0  0
 21 22  2  0  0  0  0
 21 23  1  0  0  0  0
 23 24  1  0  0  0  0
 23 25  1  0  0  0  0
 23 43  1  0  0  0  0
 24 46  1  0  0  0  0
 24 47  1  0  0  0  0
 24 48  1  0  0  0  0
 25 49  1  0  0  0  0
 25 50  1  0  0  0  0
 25 51  1  0  0  0  0
M  END
> <PUBCHEM_COMPOUND_CID>
23243694

> <PUBCHEM_CONFORMER_RMSD>
0.6

> <PUBCHEM_CONFORMER_DIVERSEORDER>
1
2

> <PUBCHEM_MMFF94_PARTIAL_CHARGES>
20
1 -0.43
12 -0.14
14 0.42
15 0.66
16 -0.14
19 0.08
2 -0.68
20 -0.15
21 -0.14
22 0.08
23 0.14
3 -0.57
4 -0.53
41 0.15
42 0.4
44 0.45
45 0.45
5 -0.53
7 0.2
9 0.28

> <PUBCHEM_EFFECTIVE_ROTOR_COUNT>
2.2

> <PUBCHEM_PHARMACOPHORE_FEATURES>
10
1 2 acceptor
1 2 donor
1 3 acceptor
1 4 donor
1 5 donor
3 23 24 25 hydrophobe
3 8 17 18 hydrophobe
6 12 16 19 20 21 22 rings
6 6 7 8 10 11 13 rings
8 1 6 7 9 12 14 15 16 rings

> <PUBCHEM_HEAVY_ATOM_COUNT>
25

> <PUBCHEM_ATOM_DEF_STEREO_COUNT>
4

> <PUBCHEM_ATOM_UDEF_STEREO_COUNT>
0

> <PUBCHEM_BOND_DEF_STEREO_COUNT>
0

> <PUBCHEM_BOND_UDEF_STEREO_COUNT>
0

> <PUBCHEM_ISOTOPIC_ATOM_COUNT>
0

> <PUBCHEM_COMPONENT_COUNT>
1

> <PUBCHEM_CACTVS_TAUTO_COUNT>
34

> <PUBCHEM_CONFORMER_ID>
0162ABAE00000001

> <PUBCHEM_MMFF94_ENERGY>
90.1062

> <PUBCHEM_FEATURE_SELFOVERLAP>
50.787

> <PUBCHEM_SHAPE_FINGERPRINT>
10498660 4 18335417984848105781
10693767 8 18058711513201549495
10759866 29 17603861157354641677
10863032 1 18341057371354992078
10948715 1 17240489147248470388
10967382 1 18411419488118393927
11578080 2 17130418206518177635
11796584 16 14979956943765150285
12236239 1 17676481761691693952
12553582 1 18411695466101734457
12788726 201 17915758491061097697
12892183 10 11239722933480165558
13134695 92 17132113550237039432
13140716 1 18339636840733247882
13224815 77 18335414682144978871
13583140 156 15410034339868626203
14713325 29 15873392896573598988
14790565 3 18267598905288940089
15196674 1 18410578404683751223
1601671 61 18408886243540735109
16752209 62 18265604391121944093
16945 1 18338814367966761636
17093844 170 18412542089954693814
18186145 218 18342731928012429229
19591789 44 18051983519476796913
19765921 60 17531534286173561944
19862831 5 18260550021677643517
20691752 17 18338500998124879223
20905425 154 17695908830405313943
21033648 29 18186791458157728717
21069387 34 14620803716471875119
21267235 1 18338811004532810286
21285901 2 17916035576602039093
21421861 104 18042116566627608626
22182313 1 18127129903511734802
2334 1 18410569626039649307
23402539 116 18409724101892892694
23493267 7 17822014241556704971
23559900 14 18413673517742747094
2748010 2 17328021482457534531
2838139 119 16806461390877335868
3004659 81 18334014952324539134
3286 77 16773220813021327875
335352 9 18410859815293890582
34934 24 18412823620628693038
350125 39 18193843634952769444
463206 1 17417529094880779463
474 4 16806179872555033412
495365 180 17417797461621913827
5104073 3 18409167735612997538
633830 44 18131061650330753365
9709674 26 18196366151177383431
9981440 41 17610074730188146948

> <PUBCHEM_SHAPE_MULTIPOLES>
485.14
8.74
2.53
1.47
6.85
0.42
0.26
-0.82
-3.02
-0.11
0.17
-0.84
-0.3
-0.08

> <PUBCHEM_SHAPE_SELFOVERLAP>
1068.702

> <PUBCHEM_SHAPE_VOLUME>
262.2

> <PUBCHEM_COORDINATE_TYPE>
2
5
10

$$$$
