455264
  -OEChem-08022503263D

 50 53  0     1  0  0  0  0  0999 V2000
   -0.8363   -2.6838    0.4769 O   0  0  0  0  0  0  0  0  0  0  0  0
   -1.9506   -2.0925    2.3835 O   0  0  0  0  0  0  0  0  0  0  0  0
    0.3102    1.9451    1.8367 O   0  0  0  0  0  0  0  0  0  0  0  0
    2.9131    2.1139    1.1658 O   0  0  0  0  0  0  0  0  0  0  0  0
   -2.1890   -0.5096   -0.6556 C   0  0  1  0  0  0  0  0  0  0  0  0
   -1.4331   -0.3420    0.7146 C   0  0  2  0  0  0  0  0  0  0  0  0
   -2.6245    0.8185   -1.3542 C   0  0  0  0  0  0  0  0  0  0  0  0
   -1.4091   -1.5125   -1.5557 C   0  0  0  0  0  0  0  0  0  0  0  0
   -2.1895    0.6289    1.6372 C   0  0  0  0  0  0  0  0  0  0  0  0
   -3.3766    1.6974   -0.3241 C   0  0  0  0  0  0  0  0  0  0  0  0
   -0.2656   -2.1294   -0.7399 C   0  0  1  0  0  0  0  0  0  0  0  0
    0.0454   -0.0456    0.4790 C   0  0  0  0  0  0  0  0  0  0  0  0
   -2.5867    1.9389    0.9600 C   0  0  0  0  0  0  0  0  0  0  0  0
    0.6693   -1.0246   -0.3216 C   0  0  0  0  0  0  0  0  0  0  0  0
   -1.4574   -1.7755    1.3096 C   0  0  0  0  0  0  0  0  0  0  0  0
   -1.4604    1.6283   -1.9611 C   0  0  0  0  0  0  0  0  0  0  0  0
   -3.6024    0.4933   -2.5066 C   0  0  0  0  0  0  0  0  0  0  0  0
    0.8037    1.0025    0.9911 C   0  0  0  0  0  0  0  0  0  0  0  0
    2.0191   -0.9466   -0.6409 C   0  0  0  0  0  0  0  0  0  0  0  0
    2.7646    0.1206   -0.1436 C   0  0  0  0  0  0  0  0  0  0  0  0
    2.1618    1.0861    0.6706 C   0  0  0  0  0  0  0  0  0  0  0  0
    4.2167    0.2107   -0.4829 C   0  0  0  0  0  0  0  0  0  0  0  0
    4.4568    0.3641   -1.9959 C   0  0  0  0  0  0  0  0  0  0  0  0
    5.0206   -0.9860    0.0571 C   0  0  0  0  0  0  0  0  0  0  0  0
   -3.1339   -1.0230   -0.4065 H   0  0  0  0  0  0  0  0  0  0  0  0
   -1.0154   -1.0489   -2.4643 H   0  0  0  0  0  0  0  0  0  0  0  0
   -2.1008   -2.3031   -1.8726 H   0  0  0  0  0  0  0  0  0  0  0  0
   -1.6479    0.8164    2.5707 H   0  0  0  0  0  0  0  0  0  0  0  0
   -3.1249    0.1480    1.9595 H   0  0  0  0  0  0  0  0  0  0  0  0
   -4.3281    1.2167   -0.0586 H   0  0  0  0  0  0  0  0  0  0  0  0
   -3.6396    2.6652   -0.7698 H   0  0  0  0  0  0  0  0  0  0  0  0
    0.2466   -2.9278   -1.2848 H   0  0  0  0  0  0  0  0  0  0  0  0
   -3.2086    2.5186    1.6531 H   0  0  0  0  0  0  0  0  0  0  0  0
   -1.7203    2.5660    0.7404 H   0  0  0  0  0  0  0  0  0  0  0  0
   -0.7285    1.9431   -1.2165 H   0  0  0  0  0  0  0  0  0  0  0  0
   -0.9273    1.0703   -2.7362 H   0  0  0  0  0  0  0  0  0  0  0  0
   -1.8354    2.5433   -2.4358 H   0  0  0  0  0  0  0  0  0  0  0  0
   -4.4635   -0.0818   -2.1478 H   0  0  0  0  0  0  0  0  0  0  0  0
   -3.9885    1.4101   -2.9670 H   0  0  0  0  0  0  0  0  0  0  0  0
   -3.1169   -0.0911   -3.2953 H   0  0  0  0  0  0  0  0  0  0  0  0
    2.4695   -1.7147   -1.2617 H   0  0  0  0  0  0  0  0  0  0  0  0
    4.6578    1.1014   -0.0195 H   0  0  0  0  0  0  0  0  0  0  0  0
    1.0171    2.2618    2.4230 H   0  0  0  0  0  0  0  0  0  0  0  0
    2.3362    2.8746    1.3458 H   0  0  0  0  0  0  0  0  0  0  0  0
    4.1380   -0.5222   -2.5548 H   0  0  0  0  0  0  0  0  0  0  0  0
    5.5214    0.5209   -2.2015 H   0  0  0  0  0  0  0  0  0  0  0  0
    3.9079    1.2260   -2.3914 H   0  0  0  0  0  0  0  0  0  0  0  0
    4.8771   -1.0951    1.1378 H   0  0  0  0  0  0  0  0  0  0  0  0
    6.0911   -0.8433   -0.1267 H   0  0  0  0  0  0  0  0  0  0  0  0
    4.7253   -1.9278   -0.4176 H   0  0  0  0  0  0  0  0  0  0  0  0
  1 11  1  0  0  0  0
  1 15  1  0  0  0  0
  2 15  2  0  0  0  0
  3 18  1  0  0  0  0
  3 43  1  0  0  0  0
  4 21  1  0  0  0  0
  4 44  1  0  0  0  0
  5  6  1  0  0  0  0
  5  7  1  0  0  0  0
  5  8  1  0  0  0  0
  5 25  1  0  0  0  0
  6  9  1  0  0  0  0
  6 12  1  0  0  0  0
  6 15  1  0  0  0  0
  7 10  1  0  0  0  0
  7 16  1  0  0  0  0
  7 17  1  0  0  0  0
  8 11  1  0  0  0  0
  8 26  1  0  0  0  0
  8 27  1  0  0  0  0
  9 13  1  0  0  0  0
  9 28  1  0  0  0  0
  9 29  1  0  0  0  0
 10 13  1  0  0  0  0
 10 30  1  0  0  0  0
 10 31  1  0  0  0  0
 11 14  1  0  0  0  0
 11 32  1  0  0  0  0
 12 14  1  0  0  0  0
 12 18  2  0  0  0  0
 13 33  1  0  0  0  0
 13 34  1  0  0  0  0
 14 19  2  0  0  0  0
 16 35  1  0  0  0  0
 16 36  1  0  0  0  0
 16 37  1  0  0  0  0
 17 38  1  0  0  0  0
 17 39  1  0  0  0  0
 17 40  1  0  0  0  0
 18 21  1  0  0  0  0
 19 20  1  0  0  0  0
 19 41  1  0  0  0  0
 20 21  2  0  0  0  0
 20 22  1  0  0  0  0
 22 23  1  0  0  0  0
 22 24  1  0  0  0  0
 22 42  1  0  0  0  0
 23 45  1  0  0  0  0
 23 46  1  0  0  0  0
 23 47  1  0  0  0  0
 24 48  1  0  0  0  0
 24 49  1  0  0  0  0
 24 50  1  0  0  0  0
M  END
> <PUBCHEM_COMPOUND_CID>
455264

> <PUBCHEM_CONFORMER_RMSD>
0.6

> <PUBCHEM_CONFORMER_DIVERSEORDER>
1
4
3
2

> <PUBCHEM_MMFF94_PARTIAL_CHARGES>
17
1 -0.43
11 0.42
12 -0.14
14 -0.14
15 0.66
18 0.08
19 -0.15
2 -0.57
20 -0.14
21 0.08
22 0.14
3 -0.53
4 -0.53
41 0.15
43 0.45
44 0.45
6 0.2

> <PUBCHEM_EFFECTIVE_ROTOR_COUNT>
2.2

> <PUBCHEM_PHARMACOPHORE_FEATURES>
8
1 2 acceptor
1 3 donor
1 4 donor
3 22 23 24 hydrophobe
3 7 16 17 hydrophobe
6 12 14 18 19 20 21 rings
6 5 6 7 9 10 13 rings
8 1 5 6 8 11 12 14 15 rings

> <PUBCHEM_HEAVY_ATOM_COUNT>
24

> <PUBCHEM_ATOM_DEF_STEREO_COUNT>
1

> <PUBCHEM_ATOM_UDEF_STEREO_COUNT>
2

> <PUBCHEM_BOND_DEF_STEREO_COUNT>
0

> <PUBCHEM_BOND_UDEF_STEREO_COUNT>
0

> <PUBCHEM_ISOTOPIC_ATOM_COUNT>
0

> <PUBCHEM_COMPONENT_COUNT>
1

> <PUBCHEM_CACTVS_TAUTO_COUNT>
34

> <PUBCHEM_CONFORMER_ID>
0006F26000000001

> <PUBCHEM_MMFF94_ENERGY>
91.2808

> <PUBCHEM_FEATURE_SELFOVERLAP>
40.632

> <PUBCHEM_SHAPE_FINGERPRINT>
10165383 225 18188783729739392021
10863032 1 18188754081732842631
10948715 1 16733535006147873911
11315181 36 18343858914910033610
11578080 2 18264771137470671732
11640471 11 15864613016736019221
12403814 3 17822875158892033049
12423570 1 8857543975982491443
12553582 1 17846236448910506222
12714826 92 18264785405277662754
12788726 201 16733824349563057139
13140716 1 18060146483112075522
13224815 77 18271530909351289368
13583140 156 17168435895591420488
13681431 1 17035260611941573331
13965767 371 13843069445411813693
14289901 80 16878231969303652298
15163728 17 17387682809200808213
16752209 62 18200312096614132200
16945 1 17987213643337561567
17349148 13 17489859428495666142
17357779 13 18050840315278880071
17980427 23 15068629241205110959
1813 80 17319865253916617531
18186145 218 18271229565175625884
18927931 339 17845954948322397222
18981168 100 18041559277383158268
19765921 60 18121497960378539689
19862831 5 17775562014081813316
200 152 15985095327959930726
20775530 9 12748657597020417892
21069387 34 16702299083393847460
21304303 282 13036958140010236619
21524375 3 18262508191915731311
22182313 1 18127973212177865200
22907989 373 18264497354373570125
23227448 37 17241056499438109692
2334 1 17772473636654540152
23402539 116 17703224002240818812
23419403 2 18123469647084117963
23493267 7 18113622270257878042
23557571 272 17753039776859913688
23559900 14 17917438610386277340
238 59 18121756388587419357
25 1 18268990890987478549
2748010 2 17987236819012654992
4175511 318 18187654595700680252
4340502 62 18046652026776061545
463206 1 14332540372193788069
5845 1 16110022650993932171
6049 1 18265057023256826544
7226269 152 18269546157914307664
81228 2 17897722300224750227
9981440 41 16767562928006513232

> <PUBCHEM_SHAPE_MULTIPOLES>
470.43
6.98
2.36
2.14
8.16
0.56
0.35
-1.8
2.76
-0.93
-0.75
-1.43
-0.19
0.71

> <PUBCHEM_SHAPE_SELFOVERLAP>
1034.287

> <PUBCHEM_SHAPE_VOLUME>
250.9

> <PUBCHEM_COORDINATE_TYPE>
2
5
10

$$$$
