13820511
  -OEChem-08022503253D

 51 54  0     1  0  0  0  0  0999 V2000
    1.0067   -1.0750   -2.0484 O   0  0  0  0  0  0  0  0  0  0  0  0
    0.9590   -2.6833    1.2457 O   0  0  0  0  0  0  0  0  0  0  0  0
    1.9496    0.9329   -2.5965 O   0  0  0  0  0  0  0  0  0  0  0  0
   -1.0605    2.5929    0.5930 O   0  0  0  0  0  0  0  0  0  0  0  0
   -3.6291    1.7974    0.7500 O   0  0  0  0  0  0  0  0  0  0  0  0
    1.8384   -0.4632    0.6390 C   0  0  2  0  0  0  0  0  0  0  0  0
    1.1381    0.5966   -0.2912 C   0  0  2  0  0  0  0  0  0  0  0  0
    3.3807   -0.2603    0.8527 C   0  0  0  0  0  0  0  0  0  0  0  0
    1.4359   -1.8950    0.1604 C   0  0  2  0  0  0  0  0  0  0  0  0
    1.5799    2.0323    0.0364 C   0  0  0  0  0  0  0  0  0  0  0  0
    3.6493    1.2198    1.2162 C   0  0  0  0  0  0  0  0  0  0  0  0
    0.3750   -1.7860   -0.9473 C   0  0  1  0  0  0  0  0  0  0  0  0
   -0.3774    0.3817   -0.1352 C   0  0  0  0  0  0  0  0  0  0  0  0
    3.0881    2.1968    0.1888 C   0  0  0  0  0  0  0  0  0  0  0  0
   -0.7729   -0.9236   -0.4907 C   0  0  0  0  0  0  0  0  0  0  0  0
    1.4327    0.2050   -1.7593 C   0  0  0  0  0  0  0  0  0  0  0  0
    3.8494   -1.1324    2.0406 C   0  0  0  0  0  0  0  0  0  0  0  0
    4.2568   -0.6434   -0.3605 C   0  0  0  0  0  0  0  0  0  0  0  0
   -1.3387    1.2993    0.2776 C   0  0  0  0  0  0  0  0  0  0  0  0
   -2.1029   -1.3205   -0.4246 C   0  0  0  0  0  0  0  0  0  0  0  0
   -3.0573   -0.3982    0.0003 C   0  0  0  0  0  0  0  0  0  0  0  0
   -2.6777    0.9034    0.3468 C   0  0  0  0  0  0  0  0  0  0  0  0
   -4.4889   -0.8183    0.0743 C   0  0  0  0  0  0  0  0  0  0  0  0
   -5.3880   -0.0070   -0.8761 C   0  0  0  0  0  0  0  0  0  0  0  0
   -5.0462   -0.7519    1.5079 C   0  0  0  0  0  0  0  0  0  0  0  0
    1.3908   -0.3234    1.6377 H   0  0  0  0  0  0  0  0  0  0  0  0
    2.2928   -2.4293   -0.2560 H   0  0  0  0  0  0  0  0  0  0  0  0
    1.1651    2.3439    1.0017 H   0  0  0  0  0  0  0  0  0  0  0  0
    1.2350    2.7372   -0.7291 H   0  0  0  0  0  0  0  0  0  0  0  0
    4.7271    1.3963    1.3244 H   0  0  0  0  0  0  0  0  0  0  0  0
    3.2046    1.4452    2.1950 H   0  0  0  0  0  0  0  0  0  0  0  0
    0.0349   -2.7656   -1.2973 H   0  0  0  0  0  0  0  0  0  0  0  0
    3.5884    2.0732   -0.7769 H   0  0  0  0  0  0  0  0  0  0  0  0
    3.3044    3.2214    0.5150 H   0  0  0  0  0  0  0  0  0  0  0  0
    4.8958   -0.9226    2.2920 H   0  0  0  0  0  0  0  0  0  0  0  0
    3.2521   -0.9402    2.9387 H   0  0  0  0  0  0  0  0  0  0  0  0
    3.7821   -2.2005    1.8100 H   0  0  0  0  0  0  0  0  0  0  0  0
    4.2218   -1.7145   -0.5790 H   0  0  0  0  0  0  0  0  0  0  0  0
    3.9800   -0.1107   -1.2710 H   0  0  0  0  0  0  0  0  0  0  0  0
    5.3095   -0.4052   -0.1637 H   0  0  0  0  0  0  0  0  0  0  0  0
   -2.3817   -2.3321   -0.7040 H   0  0  0  0  0  0  0  0  0  0  0  0
    1.6501   -2.7082    1.9273 H   0  0  0  0  0  0  0  0  0  0  0  0
   -4.5671   -1.8674   -0.2424 H   0  0  0  0  0  0  0  0  0  0  0  0
   -0.7706    3.0258   -0.2283 H   0  0  0  0  0  0  0  0  0  0  0  0
   -3.1914    2.6436    0.9471 H   0  0  0  0  0  0  0  0  0  0  0  0
   -6.3895   -0.4505   -0.9137 H   0  0  0  0  0  0  0  0  0  0  0  0
   -4.9845   -0.0129   -1.8949 H   0  0  0  0  0  0  0  0  0  0  0  0
   -5.5119    1.0353   -0.5693 H   0  0  0  0  0  0  0  0  0  0  0  0
   -5.1500    0.2701    1.8830 H   0  0  0  0  0  0  0  0  0  0  0  0
   -4.4010   -1.3014    2.2025 H   0  0  0  0  0  0  0  0  0  0  0  0
   -6.0409   -1.2104    1.5454 H   0  0  0  0  0  0  0  0  0  0  0  0
  1 12  1  0  0  0  0
  1 16  1  0  0  0  0
  2  9  1  0  0  0  0
  2 42  1  0  0  0  0
  3 16  2  0  0  0  0
  4 19  1  0  0  0  0
  4 44  1  0  0  0  0
  5 22  1  0  0  0  0
  5 45  1  0  0  0  0
  6  7  1  0  0  0  0
  6  8  1  0  0  0  0
  6  9  1  0  0  0  0
  6 26  1  0  0  0  0
  7 10  1  0  0  0  0
  7 13  1  0  0  0  0
  7 16  1  0  0  0  0
  8 11  1  0  0  0  0
  8 17  1  0  0  0  0
  8 18  1  0  0  0  0
  9 12  1  0  0  0  0
  9 27  1  0  0  0  0
 10 14  1  0  0  0  0
 10 28  1  0  0  0  0
 10 29  1  0  0  0  0
 11 14  1  0  0  0  0
 11 30  1  0  0  0  0
 11 31  1  0  0  0  0
 12 15  1  0  0  0  0
 12 32  1  0  0  0  0
 13 15  2  0  0  0  0
 13 19  1  0  0  0  0
 14 33  1  0  0  0  0
 14 34  1  0  0  0  0
 15 20  1  0  0  0  0
 17 35  1  0  0  0  0
 17 36  1  0  0  0  0
 17 37  1  0  0  0  0
 18 38  1  0  0  0  0
 18 39  1  0  0  0  0
 18 40  1  0  0  0  0
 19 22  2  0  0  0  0
 20 21  2  0  0  0  0
 20 41  1  0  0  0  0
 21 22  1  0  0  0  0
 21 23  1  0  0  0  0
 23 24  1  0  0  0  0
 23 25  1  0  0  0  0
 23 43  1  0  0  0  0
 24 46  1  0  0  0  0
 24 47  1  0  0  0  0
 24 48  1  0  0  0  0
 25 49  1  0  0  0  0
 25 50  1  0  0  0  0
 25 51  1  0  0  0  0
M  END
> <PUBCHEM_COMPOUND_CID>
13820511

> <PUBCHEM_CONFORMER_RMSD>
0.6

> <PUBCHEM_CONFORMER_DIVERSEORDER>
2
1

> <PUBCHEM_MMFF94_PARTIAL_CHARGES>
20
1 -0.43
12 0.42
13 -0.14
15 -0.14
16 0.66
19 0.08
2 -0.68
20 -0.15
21 -0.14
22 0.08
23 0.14
3 -0.57
4 -0.53
41 0.15
42 0.4
44 0.45
45 0.45
5 -0.53
7 0.2
9 0.28

> <PUBCHEM_EFFECTIVE_ROTOR_COUNT>
2.2

> <PUBCHEM_PHARMACOPHORE_FEATURES>
10
1 2 acceptor
1 2 donor
1 3 acceptor
1 4 donor
1 5 donor
3 23 24 25 hydrophobe
3 8 17 18 hydrophobe
6 13 15 19 20 21 22 rings
6 6 7 8 10 11 14 rings
8 1 6 7 9 12 13 15 16 rings

> <PUBCHEM_HEAVY_ATOM_COUNT>
25

> <PUBCHEM_ATOM_DEF_STEREO_COUNT>
4

> <PUBCHEM_ATOM_UDEF_STEREO_COUNT>
0

> <PUBCHEM_BOND_DEF_STEREO_COUNT>
0

> <PUBCHEM_BOND_UDEF_STEREO_COUNT>
0

> <PUBCHEM_ISOTOPIC_ATOM_COUNT>
0

> <PUBCHEM_COMPONENT_COUNT>
1

> <PUBCHEM_CACTVS_TAUTO_COUNT>
34

> <PUBCHEM_CONFORMER_ID>
00D2E25F00000002

> <PUBCHEM_MMFF94_ENERGY>
99.7322

> <PUBCHEM_FEATURE_SELFOVERLAP>
50.783

> <PUBCHEM_SHAPE_FINGERPRINT>
10076449 9 17346329159711219342
10366900 7 18186806854802601482
10863032 1 18199181970243276826
10948715 1 17988639735609274576
11578080 2 17389094556070528828
11796584 16 17022896840063265587
12011746 2 18333731304136502914
12236239 1 18113901567628166638
12553582 1 18270978916001773989
12633257 1 18265607685029447384
13134695 92 15936410048219782942
13140716 1 18267011941740408714
13224815 77 18410586084659919017
13583140 156 18041267851098746925
13675066 3 17967808384093720875
13965767 371 17767982934445208137
14178342 30 18127979594103816737
14223421 5 18268143163005988936
14341114 328 18343298214649089675
14787075 74 17975123554780070810
14863182 85 18410583859382264758
15209289 33 18334288743778876186
15788980 27 18114177558343200743
16945 1 18339063901160785814
17349148 13 18411976975353449823
1813 80 17532092696732024118
20691752 17 18335715900938766689
20715895 44 18050275969888770925
20905425 154 18056762031449912532
21033648 29 18043223873494679109
21069387 34 16877947122424407641
21267235 1 18412832386367034059
21421861 104 18336831866675769139
22182313 1 17987237724781308325
23402539 116 18059561521303731351
23419403 2 17753018662663445998
23557571 272 17632298951975844825
23558518 356 17261305316260679461
23559900 14 18129676291048269502
2748010 2 17911802362234751805
34934 24 18201153347632101671
350125 39 18413672404998583800
392239 28 18335983168116378659
394222 165 17170697719610913436
4072396 5 18342446046130137027
474 4 18335979882334313176
484985 159 15874723876989864586
5104073 3 18411416189800146729
9999458 23 18408318908810560062

> <PUBCHEM_SHAPE_MULTIPOLES>
485.14
8.71
2.29
1.63
8.39
0.38
0.49
-0.13
-2.71
-0.83
-0.43
-0.97
-0.29
-0.41

> <PUBCHEM_SHAPE_SELFOVERLAP>
1066.952

> <PUBCHEM_SHAPE_VOLUME>
259.4

> <PUBCHEM_COORDINATE_TYPE>
2
5
10

$$$$
