13855852
  -OEChem-08022503263D

 51 54  0     1  0  0  0  0  0999 V2000
   -0.9052    1.6791   -1.8015 O   0  0  0  0  0  0  0  0  0  0  0  0
    0.6859   -2.7638   -0.0317 O   0  0  0  0  0  0  0  0  0  0  0  0
    3.3038   -2.2827    0.3989 O   0  0  0  0  0  0  0  0  0  0  0  0
   -1.2708   -0.4162   -0.5174 C   0  0  2  0  0  0  0  0  0  0  0  0
   -1.9169    0.4526    0.6220 C   0  0  2  0  0  0  0  0  0  0  0  0
   -3.4746    0.3584    0.7793 C   0  0  0  0  0  0  0  0  0  0  0  0
   -1.3492    1.9011    0.5451 C   0  0  0  0  0  0  0  0  0  0  0  0
   -1.8629   -1.8318   -0.5672 C   0  0  0  0  0  0  0  0  0  0  0  0
   -0.2676    1.9763   -0.5432 C   0  0  1  0  0  0  0  0  0  0  0  0
    0.2474   -0.3893   -0.2527 C   0  0  0  0  0  0  0  0  0  0  0  0
   -1.3867    0.3190   -1.8796 C   0  0  0  0  0  0  0  0  0  0  0  0
   -3.9078   -1.1270    0.7124 C   0  0  0  0  0  0  0  0  0  0  0  0
   -3.3863   -1.8506   -0.5266 C   0  0  0  0  0  0  0  0  0  0  0  0
    0.7735    0.9202   -0.2755 C   0  0  0  0  0  0  0  0  0  0  0  0
   -3.8684    0.9068    2.1722 C   0  0  0  0  0  0  0  0  0  0  0  0
   -4.2911    1.1620   -0.2557 C   0  0  0  0  0  0  0  0  0  0  0  0
    1.0976   -1.4678   -0.0287 C   0  0  0  0  0  0  0  0  0  0  0  0
    2.1270    1.1572   -0.0704 C   0  0  0  0  0  0  0  0  0  0  0  0
    2.9704    0.0716    0.1604 C   0  0  0  0  0  0  0  0  0  0  0  0
    2.4593   -1.2313    0.1800 C   0  0  0  0  0  0  0  0  0  0  0  0
    4.4267    0.3204    0.3824 C   0  0  0  0  0  0  0  0  0  0  0  0
    4.6915    1.1711    1.6379 C   0  0  0  0  0  0  0  0  0  0  0  0
    5.1046    0.9648   -0.8404 C   0  0  0  0  0  0  0  0  0  0  0  0
   -1.5170    0.0323    1.5610 H   0  0  0  0  0  0  0  0  0  0  0  0
   -0.9291    2.1768    1.5208 H   0  0  0  0  0  0  0  0  0  0  0  0
   -2.1270    2.6329    0.3172 H   0  0  0  0  0  0  0  0  0  0  0  0
   -1.5463   -2.4034    0.3130 H   0  0  0  0  0  0  0  0  0  0  0  0
   -1.5141   -2.3733   -1.4549 H   0  0  0  0  0  0  0  0  0  0  0  0
    0.1669    2.9788   -0.6020 H   0  0  0  0  0  0  0  0  0  0  0  0
   -0.7902   -0.1872   -2.6502 H   0  0  0  0  0  0  0  0  0  0  0  0
   -2.4054    0.3511   -2.2659 H   0  0  0  0  0  0  0  0  0  0  0  0
   -5.0022   -1.2057    0.7386 H   0  0  0  0  0  0  0  0  0  0  0  0
   -3.5444   -1.6564    1.6037 H   0  0  0  0  0  0  0  0  0  0  0  0
   -3.8013   -1.4117   -1.4395 H   0  0  0  0  0  0  0  0  0  0  0  0
   -3.7300   -2.8917   -0.5018 H   0  0  0  0  0  0  0  0  0  0  0  0
   -4.9453    0.8021    2.3488 H   0  0  0  0  0  0  0  0  0  0  0  0
   -3.3515    0.3676    2.9741 H   0  0  0  0  0  0  0  0  0  0  0  0
   -3.6190    1.9688    2.2702 H   0  0  0  0  0  0  0  0  0  0  0  0
   -5.3662    1.0379   -0.0735 H   0  0  0  0  0  0  0  0  0  0  0  0
   -4.0953    2.2363   -0.2022 H   0  0  0  0  0  0  0  0  0  0  0  0
   -4.1173    0.8416   -1.2818 H   0  0  0  0  0  0  0  0  0  0  0  0
    2.5036    2.1751   -0.0930 H   0  0  0  0  0  0  0  0  0  0  0  0
    4.9711   -0.6160    0.5385 H   0  0  0  0  0  0  0  0  0  0  0  0
    1.4501   -3.3409    0.1392 H   0  0  0  0  0  0  0  0  0  0  0  0
    3.8615   -2.0740    1.1671 H   0  0  0  0  0  0  0  0  0  0  0  0
    4.2857    2.1838    1.5420 H   0  0  0  0  0  0  0  0  0  0  0  0
    5.7679    1.2615    1.8205 H   0  0  0  0  0  0  0  0  0  0  0  0
    4.2387    0.7095    2.5225 H   0  0  0  0  0  0  0  0  0  0  0  0
    4.9461    0.3573   -1.7384 H   0  0  0  0  0  0  0  0  0  0  0  0
    6.1850    1.0513   -0.6799 H   0  0  0  0  0  0  0  0  0  0  0  0
    4.7187    1.9697   -1.0425 H   0  0  0  0  0  0  0  0  0  0  0  0
  1  9  1  0  0  0  0
  1 11  1  0  0  0  0
  2 17  1  0  0  0  0
  2 44  1  0  0  0  0
  3 20  1  0  0  0  0
  3 45  1  0  0  0  0
  4  5  1  0  0  0  0
  4  8  1  0  0  0  0
  4 10  1  0  0  0  0
  4 11  1  0  0  0  0
  5  6  1  0  0  0  0
  5  7  1  0  0  0  0
  5 24  1  0  0  0  0
  6 12  1  0  0  0  0
  6 15  1  0  0  0  0
  6 16  1  0  0  0  0
  7  9  1  0  0  0  0
  7 25  1  0  0  0  0
  7 26  1  0  0  0  0
  8 13  1  0  0  0  0
  8 27  1  0  0  0  0
  8 28  1  0  0  0  0
  9 14  1  0  0  0  0
  9 29  1  0  0  0  0
 10 14  1  0  0  0  0
 10 17  2  0  0  0  0
 11 30  1  0  0  0  0
 11 31  1  0  0  0  0
 12 13  1  0  0  0  0
 12 32  1  0  0  0  0
 12 33  1  0  0  0  0
 13 34  1  0  0  0  0
 13 35  1  0  0  0  0
 14 18  2  0  0  0  0
 15 36  1  0  0  0  0
 15 37  1  0  0  0  0
 15 38  1  0  0  0  0
 16 39  1  0  0  0  0
 16 40  1  0  0  0  0
 16 41  1  0  0  0  0
 17 20  1  0  0  0  0
 18 19  1  0  0  0  0
 18 42  1  0  0  0  0
 19 20  2  0  0  0  0
 19 21  1  0  0  0  0
 21 22  1  0  0  0  0
 21 23  1  0  0  0  0
 21 43  1  0  0  0  0
 22 46  1  0  0  0  0
 22 47  1  0  0  0  0
 22 48  1  0  0  0  0
 23 49  1  0  0  0  0
 23 50  1  0  0  0  0
 23 51  1  0  0  0  0
M  END
> <PUBCHEM_COMPOUND_CID>
13855852

> <PUBCHEM_CONFORMER_RMSD>
0.6

> <PUBCHEM_CONFORMER_DIVERSEORDER>
1
2

> <PUBCHEM_MMFF94_PARTIAL_CHARGES>
16
1 -0.56
10 -0.14
11 0.28
14 -0.14
17 0.08
18 -0.15
19 -0.14
2 -0.53
20 0.08
21 0.14
3 -0.53
4 0.14
42 0.15
44 0.45
45 0.45
9 0.42

> <PUBCHEM_EFFECTIVE_ROTOR_COUNT>
2.4

> <PUBCHEM_PHARMACOPHORE_FEATURES>
8
1 1 acceptor
1 2 donor
1 3 donor
3 21 22 23 hydrophobe
3 6 15 16 hydrophobe
6 10 14 17 18 19 20 rings
6 4 5 6 8 12 13 rings
8 1 4 5 7 9 10 11 14 rings

> <PUBCHEM_HEAVY_ATOM_COUNT>
23

> <PUBCHEM_ATOM_DEF_STEREO_COUNT>
2

> <PUBCHEM_ATOM_UDEF_STEREO_COUNT>
1

> <PUBCHEM_BOND_DEF_STEREO_COUNT>
0

> <PUBCHEM_BOND_UDEF_STEREO_COUNT>
0

> <PUBCHEM_ISOTOPIC_ATOM_COUNT>
0

> <PUBCHEM_COMPONENT_COUNT>
1

> <PUBCHEM_CACTVS_TAUTO_COUNT>
34

> <PUBCHEM_CONFORMER_ID>
00D36C6C00000001

> <PUBCHEM_MMFF94_ENERGY>
97.7938

> <PUBCHEM_FEATURE_SELFOVERLAP>
40.632

> <PUBCHEM_SHAPE_FINGERPRINT>
10366900 7 17489582346943263657
10863032 1 18060423499427650147
10948715 1 16988850457760351189
1100329 8 17978789348143595311
11132069 177 18408602560813398298
11578080 2 17460027375625600510
12011746 2 18273496758558281829
12173636 292 18201715115820689524
12236239 1 17917990577322462565
12251169 10 18413111675405721129
12403814 3 17822285795026904709
12553582 1 18261392286497889812
12633257 1 18127698127748663187
12670546 56 17917991676470119553
12892183 10 18272942617524437899
13132413 78 18341617053044068405
13140716 1 17975969088402290610
13224815 77 18114179718395181150
13544653 18 17968103018644413825
13583140 156 18131343137902228705
13965767 371 17625298267248349761
14223421 5 18266744571388662655
14787075 74 17628912619112758401
14790565 3 18263936608134594924
14840074 17 17749965486772495212
15163728 17 14979134474770982913
15196674 1 18410573972282743826
15209289 33 18341614866726204242
15209294 21 18201722868215514496
15309172 13 18409445895175310426
15536298 74 18343587317640821886
16945 1 18269005210682782581
17349148 13 17675923205711278130
17980427 23 17561090224402939969
1813 80 17313112951025032789
18186145 218 18201712964796552016
19784866 170 18334864891565151109
200 152 18270668862027969447
20028762 73 17911522309025325879
20600515 1 16226341373049116557
20739085 24 18335995164165412930
20775438 99 11752902638694316665
21267235 1 18339652251355915671
21304303 282 15361027835160722725
21756936 100 17560792269477958896
22182313 1 18189044301378837526
23184049 59 18338246959815908889
23402539 116 17095516305653748036
23559900 14 17970061141701151794
23566358 27 18268440044531998758
2748010 2 17975692783938450492
296302 2 17458347450375034829
34934 24 18335136458500605449
392239 28 17987514977937023232
5104073 3 18412827958277098603
6034566 193 15582338974741289172
633830 44 17846493773228361940

> <PUBCHEM_SHAPE_MULTIPOLES>
455.72
8.84
2.32
1.39
5.63
0.97
-0.05
-1.33
-2.72
-0.22
0.02
-0.59
-0.58
-0.36

> <PUBCHEM_SHAPE_SELFOVERLAP>
994.576

> <PUBCHEM_SHAPE_VOLUME>
246.8

> <PUBCHEM_COORDINATE_TYPE>
2
5
10

$$$$
