MODEL 1
REMARK VINA RESULT:      -7.2      0.000      0.000
REMARK  5 active torsions:
REMARK  status: ('A' for Active; 'I' for Inactive)
REMARK    1  A    between atoms: O_1  and  C_17 
REMARK    2  A    between atoms: O_3  and  C_18 
REMARK    3  A    between atoms: O_4  and  C_21 
REMARK    4  A    between atoms: C_6  and  C_17 
REMARK    5  A    between atoms: C_20  and  C_22 
ROOT
HETATM    1  C   UNK N   1     152.454 156.260 151.772  0.00  0.00     0.017 C 
HETATM    2  C   UNK N   1     152.991 157.474 152.632  0.00  0.00     0.080 C 
HETATM    3  C   UNK N   1     151.318 156.617 150.710  0.00  0.00    -0.043 C 
HETATM    4  C   UNK N   1     153.335 158.630 151.634  0.00  0.00     0.026 C 
HETATM    5  C   UNK N   1     151.770 157.850 149.882  0.00  0.00     0.009 C 
HETATM    6  C   UNK N   1     152.176 155.071 152.718  0.00  0.00     0.011 C 
HETATM    7  C   UNK N   1     152.153 159.040 150.764  0.00  0.00     0.002 C 
HETATM    8  C   UNK N   1     152.002 157.819 153.796  0.00  0.00     0.004 A 
HETATM    9  C   UNK N   1     151.149 155.373 153.814  0.00  0.00     0.040 C 
HETATM   10  C   UNK N   1     151.155 155.440 149.715  0.00  0.00     0.015 C 
HETATM   11  C   UNK N   1     149.917 156.922 151.292  0.00  0.00     0.015 C 
HETATM   12  C   UNK N   1     151.177 156.791 154.350  0.00  0.00    -0.047 A 
HETATM   13  C   UNK N   1     151.964 159.107 154.415  0.00  0.00     0.107 A 
HETATM   14  C   UNK N   1     150.328 157.074 155.433  0.00  0.00     0.018 A 
HETATM   15  C   UNK N   1     150.283 158.344 156.020  0.00  0.00    -0.018 A 
HETATM   16  C   UNK N   1     151.113 159.357 155.512  0.00  0.00     0.108 A 
ENDROOT
BRANCH   2  17
HETATM   17  C   UNK N   1     154.332 157.088 153.273  0.00  0.00     0.154 C 
HETATM   18  O   UNK N   1     154.833 155.988 153.077  0.00  0.00    -0.649 OA
BRANCH  17  19
HETATM   19  O   UNK N   1     154.979 157.980 154.059  0.00  0.00    -0.775 OA
HETATM   20  H   UNK N   1     154.498 158.663 154.545  0.00  0.00     0.167 HD
ENDBRANCH  17  19
ENDBRANCH   2  17
BRANCH  13  21
HETATM   21  O   UNK N   1     152.750 160.107 153.966  0.00  0.00    -0.357 OA
HETATM   22  H   UNK N   1     153.344 160.020 153.209  0.00  0.00     0.218 HD
ENDBRANCH  13  21
BRANCH  16  23
HETATM   23  O   UNK N   1     151.108 160.583 156.086  0.00  0.00    -0.353 OA
HETATM   24  C   UNK N   1     150.310 161.600 155.605  0.00  0.00     0.210 C 
ENDBRANCH  16  23
BRANCH  15  25
HETATM   25  C   UNK N   1     149.360 158.621 157.206  0.00  0.00     0.013 C 
HETATM   26  C   UNK N   1     150.036 158.254 158.534  0.00  0.00     0.015 C 
HETATM   27  C   UNK N   1     148.023 157.888 157.050  0.00  0.00     0.015 C 
ENDBRANCH  15  25
TORSDOF 5
ENDMDL
MODEL 2
REMARK VINA RESULT:      -7.1     29.667     31.923
REMARK  5 active torsions:
REMARK  status: ('A' for Active; 'I' for Inactive)
REMARK    1  A    between atoms: O_1  and  C_17 
REMARK    2  A    between atoms: O_3  and  C_18 
REMARK    3  A    between atoms: O_4  and  C_21 
REMARK    4  A    between atoms: C_6  and  C_17 
REMARK    5  A    between atoms: C_20  and  C_22 
ROOT
HETATM    1  C   UNK N   1     132.673 167.334 176.092  0.00  0.00     0.017 C 
HETATM    2  C   UNK N   1     132.295 167.060 177.603  0.00  0.00     0.080 C 
HETATM    3  C   UNK N   1     132.888 166.036 175.189  0.00  0.00    -0.043 C 
HETATM    4  C   UNK N   1     131.115 166.032 177.604  0.00  0.00     0.026 C 
HETATM    5  C   UNK N   1     131.686 165.075 175.394  0.00  0.00     0.009 C 
HETATM    6  C   UNK N   1     133.786 168.406 176.049  0.00  0.00     0.011 C 
HETATM    7  C   UNK N   1     131.448 164.740 176.868  0.00  0.00     0.002 C 
HETATM    8  C   UNK N   1     133.563 166.680 178.440  0.00  0.00     0.004 A 
HETATM    9  C   UNK N   1     135.062 168.009 176.799  0.00  0.00     0.040 C 
HETATM   10  C   UNK N   1     132.891 166.444 173.694  0.00  0.00     0.015 C 
HETATM   11  C   UNK N   1     134.187 165.237 175.448  0.00  0.00     0.015 C 
HETATM   12  C   UNK N   1     134.844 167.178 178.047  0.00  0.00    -0.047 A 
HETATM   13  C   UNK N   1     133.483 165.937 179.659  0.00  0.00     0.107 A 
HETATM   14  C   UNK N   1     135.980 166.891 178.822  0.00  0.00     0.018 A 
HETATM   15  C   UNK N   1     135.896 166.146 180.005  0.00  0.00    -0.018 A 
HETATM   16  C   UNK N   1     134.640 165.679 180.425  0.00  0.00     0.108 A 
ENDROOT
BRANCH   2  17
HETATM   17  C   UNK N   1     131.710 168.340 178.219  0.00  0.00     0.154 C 
HETATM   18  O   UNK N   1     132.071 168.734 179.321  0.00  0.00    -0.649 OA
BRANCH  17  19
HETATM   19  O   UNK N   1     130.788 169.052 177.531  0.00  0.00    -0.775 OA
HETATM   20  H   UNK N   1     130.513 168.792 176.640  0.00  0.00     0.167 HD
ENDBRANCH  17  19
ENDBRANCH   2  17
BRANCH  13  21
HETATM   21  O   UNK N   1     132.297 165.477 180.105  0.00  0.00    -0.357 OA
HETATM   22  H   UNK N   1     131.501 165.434 179.559  0.00  0.00     0.218 HD
ENDBRANCH  13  21
BRANCH  16  23
HETATM   23  O   UNK N   1     134.532 164.985 181.582  0.00  0.00    -0.353 OA
HETATM   24  C   UNK N   1     134.242 165.615 182.775  0.00  0.00     0.210 C 
ENDBRANCH  16  23
BRANCH  15  25
HETATM   25  C   UNK N   1     137.147 165.862 180.835  0.00  0.00     0.013 C 
HETATM   26  C   UNK N   1     137.555 167.087 181.664  0.00  0.00     0.015 C 
HETATM   27  C   UNK N   1     138.303 165.387 179.949  0.00  0.00     0.015 C 
ENDBRANCH  15  25
TORSDOF 5
ENDMDL
MODEL 3
REMARK VINA RESULT:      -6.8      7.376     10.584
REMARK  5 active torsions:
REMARK  status: ('A' for Active; 'I' for Inactive)
REMARK    1  A    between atoms: O_1  and  C_17 
REMARK    2  A    between atoms: O_3  and  C_18 
REMARK    3  A    between atoms: O_4  and  C_21 
REMARK    4  A    between atoms: C_6  and  C_17 
REMARK    5  A    between atoms: C_20  and  C_22 
ROOT
HETATM    1  C   UNK N   1     154.788 169.075 153.318  0.00  0.00     0.017 C 
HETATM    2  C   UNK N   1     153.962 168.116 152.370  0.00  0.00     0.080 C 
HETATM    3  C   UNK N   1     155.854 168.358 154.265  0.00  0.00    -0.043 C 
HETATM    4  C   UNK N   1     154.990 167.185 151.647  0.00  0.00     0.026 C 
HETATM    5  C   UNK N   1     156.715 167.389 153.411  0.00  0.00     0.009 C 
HETATM    6  C   UNK N   1     153.810 170.064 153.993  0.00  0.00     0.011 C 
HETATM    7  C   UNK N   1     155.865 166.396 152.614  0.00  0.00     0.002 C 
HETATM    8  C   UNK N   1     152.802 167.413 153.153  0.00  0.00     0.004 A 
HETATM    9  C   UNK N   1     152.717 169.388 154.828  0.00  0.00     0.040 C 
HETATM   10  C   UNK N   1     156.817 169.420 154.853  0.00  0.00     0.015 C 
HETATM   11  C   UNK N   1     155.273 167.556 155.455  0.00  0.00     0.015 C 
HETATM   12  C   UNK N   1     152.218 168.063 154.285  0.00  0.00    -0.047 A 
HETATM   13  C   UNK N   1     152.217 166.184 152.717  0.00  0.00     0.107 A 
HETATM   14  C   UNK N   1     151.140 167.469 154.961  0.00  0.00     0.018 A 
HETATM   15  C   UNK N   1     150.585 166.255 154.538  0.00  0.00    -0.018 A 
HETATM   16  C   UNK N   1     151.123 165.620 153.407  0.00  0.00     0.108 A 
ENDROOT
BRANCH   2  17
HETATM   17  C   UNK N   1     153.317 168.945 151.249  0.00  0.00     0.154 C 
HETATM   18  O   UNK N   1     153.933 169.846 150.693  0.00  0.00    -0.649 OA
BRANCH  17  19
HETATM   19  O   UNK N   1     152.051 168.671 150.859  0.00  0.00    -0.775 OA
HETATM   20  H   UNK N   1     151.288 168.992 151.360  0.00  0.00     0.167 HD
ENDBRANCH  17  19
ENDBRANCH   2  17
BRANCH  13  21
HETATM   21  O   UNK N   1     152.694 165.544 151.631  0.00  0.00    -0.357 OA
HETATM   22  H   UNK N   1     152.717 164.582 151.545  0.00  0.00     0.218 HD
ENDBRANCH  13  21
BRANCH  16  23
HETATM   23  O   UNK N   1     150.580 164.462 152.964  0.00  0.00    -0.353 OA
HETATM   24  C   UNK N   1     151.085 163.237 153.348  0.00  0.00     0.210 C 
ENDBRANCH  16  23
BRANCH  15  25
HETATM   25  C   UNK N   1     149.402 165.639 155.285  0.00  0.00     0.013 C 
HETATM   26  C   UNK N   1     148.342 166.697 155.616  0.00  0.00     0.015 C 
HETATM   27  C   UNK N   1     149.866 164.909 156.550  0.00  0.00     0.015 C 
ENDBRANCH  15  25
TORSDOF 5
ENDMDL
MODEL 4
REMARK VINA RESULT:      -6.6     26.116     29.371
REMARK  5 active torsions:
REMARK  status: ('A' for Active; 'I' for Inactive)
REMARK    1  A    between atoms: O_1  and  C_17 
REMARK    2  A    between atoms: O_3  and  C_18 
REMARK    3  A    between atoms: O_4  and  C_21 
REMARK    4  A    between atoms: C_6  and  C_17 
REMARK    5  A    between atoms: C_20  and  C_22 
ROOT
HETATM    1  C   UNK N   1     153.404 167.687 181.603  0.00  0.00     0.017 C 
HETATM    2  C   UNK N   1     151.906 167.535 182.088  0.00  0.00     0.080 C 
HETATM    3  C   UNK N   1     153.987 169.172 181.620  0.00  0.00    -0.043 C 
HETATM    4  C   UNK N   1     151.784 168.294 183.451  0.00  0.00     0.026 C 
HETATM    5  C   UNK N   1     153.683 169.817 182.999  0.00  0.00     0.009 C 
HETATM    6  C   UNK N   1     153.582 166.883 180.294  0.00  0.00     0.011 C 
HETATM    7  C   UNK N   1     152.196 169.758 183.358  0.00  0.00     0.002 C 
HETATM    8  C   UNK N   1     150.904 167.948 180.958  0.00  0.00     0.004 A 
HETATM    9  C   UNK N   1     152.660 167.333 179.156  0.00  0.00     0.040 C 
HETATM   10  C   UNK N   1     155.529 169.122 181.475  0.00  0.00     0.015 C 
HETATM   11  C   UNK N   1     153.454 170.123 180.521  0.00  0.00     0.015 C 
HETATM   12  C   UNK N   1     151.285 167.803 179.588  0.00  0.00    -0.047 A 
HETATM   13  C   UNK N   1     149.566 168.366 181.235  0.00  0.00     0.107 A 
HETATM   14  C   UNK N   1     150.375 168.117 178.565  0.00  0.00     0.018 A 
HETATM   15  C   UNK N   1     149.072 168.544 178.846  0.00  0.00    -0.018 A 
HETATM   16  C   UNK N   1     148.668 168.659 180.186  0.00  0.00     0.108 A 
ENDROOT
BRANCH   2  17
HETATM   17  C   UNK N   1     151.630 166.062 182.425  0.00  0.00     0.154 C 
HETATM   18  O   UNK N   1     152.225 165.499 183.335  0.00  0.00    -0.649 OA
BRANCH  17  19
HETATM   19  O   UNK N   1     150.706 165.376 181.713  0.00  0.00    -0.775 OA
HETATM   20  H   UNK N   1     150.925 164.540 181.278  0.00  0.00     0.167 HD
ENDBRANCH  17  19
ENDBRANCH   2  17
BRANCH  13  21
HETATM   21  O   UNK N   1     149.132 168.481 182.506  0.00  0.00    -0.357 OA
HETATM   22  H   UNK N   1     149.185 167.767 183.155  0.00  0.00     0.218 HD
ENDBRANCH  13  21
BRANCH  16  23
HETATM   23  O   UNK N   1     147.402 169.039 180.478  0.00  0.00    -0.353 OA
HETATM   24  C   UNK N   1     147.098 170.349 180.787  0.00  0.00     0.210 C 
ENDBRANCH  16  23
BRANCH  15  25
HETATM   25  C   UNK N   1     148.097 168.865 177.713  0.00  0.00     0.013 C 
HETATM   26  C   UNK N   1     147.935 167.670 176.765  0.00  0.00     0.015 C 
HETATM   27  C   UNK N   1     148.532 170.119 176.946  0.00  0.00     0.015 C 
ENDBRANCH  15  25
TORSDOF 5
ENDMDL
MODEL 5
REMARK VINA RESULT:      -6.5     24.655     27.322
REMARK  5 active torsions:
REMARK  status: ('A' for Active; 'I' for Inactive)
REMARK    1  A    between atoms: O_1  and  C_17 
REMARK    2  A    between atoms: O_3  and  C_18 
REMARK    3  A    between atoms: O_4  and  C_21 
REMARK    4  A    between atoms: C_6  and  C_17 
REMARK    5  A    between atoms: C_20  and  C_22 
ROOT
HETATM    1  C   UNK N   1     146.062 132.317 144.648  0.00  0.00     0.017 C 
HETATM    2  C   UNK N   1     145.670 133.044 143.300  0.00  0.00     0.080 C 
HETATM    3  C   UNK N   1     145.187 131.036 145.021  0.00  0.00    -0.043 C 
HETATM    4  C   UNK N   1     145.577 131.942 142.192  0.00  0.00     0.026 C 
HETATM    5  C   UNK N   1     145.103 130.105 143.782  0.00  0.00     0.009 C 
HETATM    6  C   UNK N   1     146.239 133.386 145.751  0.00  0.00     0.011 C 
HETATM    7  C   UNK N   1     144.591 130.832 142.535  0.00  0.00     0.002 C 
HETATM    8  C   UNK N   1     144.411 133.954 143.497  0.00  0.00     0.004 A 
HETATM    9  C   UNK N   1     144.986 134.229 146.007  0.00  0.00     0.040 C 
HETATM   10  C   UNK N   1     145.897 130.234 146.141  0.00  0.00     0.015 C 
HETATM   11  C   UNK N   1     143.744 131.318 145.504  0.00  0.00     0.015 C 
HETATM   12  C   UNK N   1     144.145 134.523 144.781  0.00  0.00    -0.047 A 
HETATM   13  C   UNK N   1     143.564 134.338 142.411  0.00  0.00     0.107 A 
HETATM   14  C   UNK N   1     143.051 135.387 144.957  0.00  0.00     0.018 A 
HETATM   15  C   UNK N   1     142.215 135.742 143.892  0.00  0.00    -0.018 A 
HETATM   16  C   UNK N   1     142.482 135.221 142.615  0.00  0.00     0.108 A 
ENDROOT
BRANCH   2  17
HETATM   17  C   UNK N   1     146.826 133.955 142.860  0.00  0.00     0.154 C 
HETATM   18  O   UNK N   1     146.696 134.737 141.926  0.00  0.00    -0.649 OA
BRANCH  17  19
HETATM   19  O   UNK N   1     148.005 133.903 143.521  0.00  0.00    -0.775 OA
HETATM   20  H   UNK N   1     148.846 134.044 143.063  0.00  0.00     0.167 HD
ENDBRANCH  17  19
ENDBRANCH   2  17
BRANCH  13  21
HETATM   21  O   UNK N   1     143.789 133.870 141.167  0.00  0.00    -0.357 OA
HETATM   22  H   UNK N   1     143.084 133.649 140.544  0.00  0.00     0.218 HD
ENDBRANCH  13  21
BRANCH  16  23
HETATM   23  O   UNK N   1     141.705 135.577 141.566  0.00  0.00    -0.353 OA
HETATM   24  C   UNK N   1     140.609 134.827 141.194  0.00  0.00     0.210 C 
ENDBRANCH  16  23
BRANCH  15  25
HETATM   25  C   UNK N   1     141.040 136.695 144.110  0.00  0.00     0.013 C 
HETATM   26  C   UNK N   1     141.496 138.159 144.055  0.00  0.00     0.015 C 
HETATM   27  C   UNK N   1     140.318 136.393 145.427  0.00  0.00     0.015 C 
ENDBRANCH  15  25
TORSDOF 5
ENDMDL
MODEL 6
REMARK VINA RESULT:      -6.5     35.527     38.686
REMARK  5 active torsions:
REMARK  status: ('A' for Active; 'I' for Inactive)
REMARK    1  A    between atoms: O_1  and  C_17 
REMARK    2  A    between atoms: O_3  and  C_18 
REMARK    3  A    between atoms: O_4  and  C_21 
REMARK    4  A    between atoms: C_6  and  C_17 
REMARK    5  A    between atoms: C_20  and  C_22 
ROOT
HETATM    1  C   UNK N   1     167.369 155.246 187.155  0.00  0.00     0.017 C 
HETATM    2  C   UNK N   1     166.327 154.116 187.528  0.00  0.00     0.080 C 
HETATM    3  C   UNK N   1     168.462 154.844 186.064  0.00  0.00    -0.043 C 
HETATM    4  C   UNK N   1     165.764 153.547 186.184  0.00  0.00     0.026 C 
HETATM    5  C   UNK N   1     167.746 154.194 184.849  0.00  0.00     0.009 C 
HETATM    6  C   UNK N   1     167.891 155.885 188.462  0.00  0.00     0.011 C 
HETATM    7  C   UNK N   1     166.851 153.020 185.255  0.00  0.00     0.002 C 
HETATM    8  C   UNK N   1     166.952 153.082 188.525  0.00  0.00     0.004 A 
HETATM    9  C   UNK N   1     168.575 154.896 189.410  0.00  0.00     0.040 C 
HETATM   10  C   UNK N   1     169.164 156.123 185.543  0.00  0.00     0.015 C 
HETATM   11  C   UNK N   1     169.570 153.873 186.539  0.00  0.00     0.015 C 
HETATM   12  C   UNK N   1     167.985 153.500 189.421  0.00  0.00    -0.047 A 
HETATM   13  C   UNK N   1     166.454 151.749 188.659  0.00  0.00     0.107 A 
HETATM   14  C   UNK N   1     168.513 152.597 190.358  0.00  0.00     0.018 A 
HETATM   15  C   UNK N   1     168.032 151.287 190.470  0.00  0.00    -0.018 A 
HETATM   16  C   UNK N   1     166.993 150.870 189.622  0.00  0.00     0.108 A 
ENDROOT
BRANCH   2  17
HETATM   17  C   UNK N   1     165.119 154.752 188.230  0.00  0.00     0.154 C 
HETATM   18  O   UNK N   1     165.091 154.885 189.447  0.00  0.00    -0.649 OA
BRANCH  17  19
HETATM   19  O   UNK N   1     164.069 155.184 187.493  0.00  0.00    -0.775 OA
HETATM   20  H   UNK N   1     163.759 156.099 187.546  0.00  0.00     0.167 HD
ENDBRANCH  17  19
ENDBRANCH   2  17
BRANCH  13  21
HETATM   21  O   UNK N   1     165.451 151.308 187.873  0.00  0.00    -0.357 OA
HETATM   22  H   UNK N   1     165.458 151.380 186.910  0.00  0.00     0.218 HD
ENDBRANCH  13  21
BRANCH  16  23
HETATM   23  O   UNK N   1     166.493 149.617 189.737  0.00  0.00    -0.353 OA
HETATM   24  C   UNK N   1     166.929 148.591 188.924  0.00  0.00     0.210 C 
ENDBRANCH  16  23
BRANCH  15  25
HETATM   25  C   UNK N   1     168.616 150.331 191.510  0.00  0.00     0.013 C 
HETATM   26  C   UNK N   1     168.829 151.035 192.855  0.00  0.00     0.015 C 
HETATM   27  C   UNK N   1     169.918 149.696 191.009  0.00  0.00     0.015 C 
ENDBRANCH  15  25
TORSDOF 5
ENDMDL
MODEL 7
REMARK VINA RESULT:      -6.5     39.389     42.360
REMARK  5 active torsions:
REMARK  status: ('A' for Active; 'I' for Inactive)
REMARK    1  A    between atoms: O_1  and  C_17 
REMARK    2  A    between atoms: O_3  and  C_18 
REMARK    3  A    between atoms: O_4  and  C_21 
REMARK    4  A    between atoms: C_6  and  C_17 
REMARK    5  A    between atoms: C_20  and  C_22 
ROOT
HETATM    1  C   UNK N   1     167.052 148.285 115.233  0.00  0.00     0.017 C 
HETATM    2  C   UNK N   1     168.296 147.320 115.389  0.00  0.00     0.080 C 
HETATM    3  C   UNK N   1     167.351 149.688 114.534  0.00  0.00    -0.043 C 
HETATM    4  C   UNK N   1     168.998 147.245 113.993  0.00  0.00     0.026 C 
HETATM    5  C   UNK N   1     168.148 149.440 113.226  0.00  0.00     0.009 C 
HETATM    6  C   UNK N   1     166.288 148.323 116.576  0.00  0.00     0.011 C 
HETATM    7  C   UNK N   1     169.414 148.610 113.458  0.00  0.00     0.002 C 
HETATM    8  C   UNK N   1     169.187 147.743 116.605  0.00  0.00     0.004 A 
HETATM    9  C   UNK N   1     167.129 148.813 117.759  0.00  0.00     0.040 C 
HETATM   10  C   UNK N   1     166.013 150.357 114.129  0.00  0.00     0.015 C 
HETATM   11  C   UNK N   1     168.138 150.715 115.384  0.00  0.00     0.015 C 
HETATM   12  C   UNK N   1     168.591 148.413 117.719  0.00  0.00    -0.047 A 
HETATM   13  C   UNK N   1     170.568 147.389 116.704  0.00  0.00     0.107 A 
HETATM   14  C   UNK N   1     169.368 148.747 118.840  0.00  0.00     0.018 A 
HETATM   15  C   UNK N   1     170.726 148.412 118.920  0.00  0.00    -0.018 A 
HETATM   16  C   UNK N   1     171.320 147.723 117.851  0.00  0.00     0.108 A 
ENDROOT
BRANCH   2  17
HETATM   17  C   UNK N   1     167.799 145.893 115.663  0.00  0.00     0.154 C 
HETATM   18  O   UNK N   1     167.653 145.088 114.752  0.00  0.00    -0.649 OA
BRANCH  17  19
HETATM   19  O   UNK N   1     167.529 145.512 116.933  0.00  0.00    -0.775 OA
HETATM   20  H   UNK N   1     166.784 144.930 117.137  0.00  0.00     0.167 HD
ENDBRANCH  17  19
ENDBRANCH   2  17
BRANCH  13  21
HETATM   21  O   UNK N   1     171.178 146.719 115.706  0.00  0.00    -0.357 OA
HETATM   22  H   UNK N   1     170.826 146.663 114.808  0.00  0.00     0.218 HD
ENDBRANCH  13  21
BRANCH  16  23
HETATM   23  O   UNK N   1     172.622 147.362 117.923  0.00  0.00    -0.353 OA
HETATM   24  C   UNK N   1     173.616 148.134 117.356  0.00  0.00     0.210 C 
ENDBRANCH  16  23
BRANCH  15  25
HETATM   25  C   UNK N   1     171.544 148.776 120.159  0.00  0.00     0.013 C 
HETATM   26  C   UNK N   1     170.768 148.469 121.447  0.00  0.00     0.015 C 
HETATM   27  C   UNK N   1     171.987 150.242 120.120  0.00  0.00     0.015 C 
ENDBRANCH  15  25
TORSDOF 5
ENDMDL
MODEL 8
REMARK VINA RESULT:      -6.3     30.253     32.915
REMARK  5 active torsions:
REMARK  status: ('A' for Active; 'I' for Inactive)
REMARK    1  A    between atoms: O_1  and  C_17 
REMARK    2  A    between atoms: O_3  and  C_18 
REMARK    3  A    between atoms: O_4  and  C_21 
REMARK    4  A    between atoms: C_6  and  C_17 
REMARK    5  A    between atoms: C_20  and  C_22 
ROOT
HETATM    1  C   UNK N   1     160.224 124.168 152.798  0.00  0.00     0.017 C 
HETATM    2  C   UNK N   1     160.084 125.743 152.765  0.00  0.00     0.080 C 
HETATM    3  C   UNK N   1     158.995 123.380 153.444  0.00  0.00    -0.043 C 
HETATM    4  C   UNK N   1     158.678 126.068 152.158  0.00  0.00     0.026 C 
HETATM    5  C   UNK N   1     157.676 123.901 152.814  0.00  0.00     0.009 C 
HETATM    6  C   UNK N   1     161.634 123.810 153.321  0.00  0.00     0.011 C 
HETATM    7  C   UNK N   1     157.532 125.421 152.927  0.00  0.00     0.002 C 
HETATM    8  C   UNK N   1     160.410 126.367 154.164  0.00  0.00     0.004 A 
HETATM    9  C   UNK N   1     161.934 124.348 154.724  0.00  0.00     0.040 C 
HETATM   10  C   UNK N   1     159.103 121.876 153.087  0.00  0.00     0.015 C 
HETATM   11  C   UNK N   1     158.860 123.477 154.982  0.00  0.00     0.015 C 
HETATM   12  C   UNK N   1     161.316 125.695 155.043  0.00  0.00    -0.047 A 
HETATM   13  C   UNK N   1     159.923 127.650 154.564  0.00  0.00     0.107 A 
HETATM   14  C   UNK N   1     161.661 126.273 156.276  0.00  0.00     0.018 A 
HETATM   15  C   UNK N   1     161.164 127.522 156.668  0.00  0.00    -0.018 A 
HETATM   16  C   UNK N   1     160.301 128.212 155.802  0.00  0.00     0.108 A 
ENDROOT
BRANCH   2  17
HETATM   17  C   UNK N   1     161.094 126.320 151.762  0.00  0.00     0.154 C 
HETATM   18  O   UNK N   1     161.444 125.682 150.777  0.00  0.00    -0.649 OA
BRANCH  17  19
HETATM   19  O   UNK N   1     161.600 127.559 151.962  0.00  0.00    -0.775 OA
HETATM   20  H   UNK N   1     162.364 127.878 151.461  0.00  0.00     0.167 HD
ENDBRANCH  17  19
ENDBRANCH   2  17
BRANCH  13  21
HETATM   21  O   UNK N   1     159.100 128.352 153.760  0.00  0.00    -0.357 OA
HETATM   22  H   UNK N   1     159.396 128.813 152.964  0.00  0.00     0.218 HD
ENDBRANCH  13  21
BRANCH  16  23
HETATM   23  O   UNK N   1     159.835 129.435 156.149  0.00  0.00    -0.353 OA
HETATM   24  C   UNK N   1     158.657 129.584 156.851  0.00  0.00     0.210 C 
ENDBRANCH  16  23
BRANCH  15  25
HETATM   25  C   UNK N   1     161.567 128.133 158.010  0.00  0.00     0.013 C 
HETATM   26  C   UNK N   1     162.852 128.961 157.879  0.00  0.00     0.015 C 
HETATM   27  C   UNK N   1     161.716 127.053 159.087  0.00  0.00     0.015 C 
ENDBRANCH  15  25
TORSDOF 5
ENDMDL
MODEL 9
REMARK VINA RESULT:      -6.3     17.872     21.879
REMARK  5 active torsions:
REMARK  status: ('A' for Active; 'I' for Inactive)
REMARK    1  A    between atoms: O_1  and  C_17 
REMARK    2  A    between atoms: O_3  and  C_18 
REMARK    3  A    between atoms: O_4  and  C_21 
REMARK    4  A    between atoms: C_6  and  C_17 
REMARK    5  A    between atoms: C_20  and  C_22 
ROOT
HETATM    1  C   UNK N   1     140.817 173.077 158.096  0.00  0.00     0.017 C 
HETATM    2  C   UNK N   1     140.292 174.067 159.213  0.00  0.00     0.080 C 
HETATM    3  C   UNK N   1     142.384 172.777 158.122  0.00  0.00    -0.043 C 
HETATM    4  C   UNK N   1     140.862 173.562 160.580  0.00  0.00     0.026 C 
HETATM    5  C   UNK N   1     142.801 172.402 159.569  0.00  0.00     0.009 C 
HETATM    6  C   UNK N   1     140.210 173.501 156.739  0.00  0.00     0.011 C 
HETATM    7  C   UNK N   1     142.383 173.460 160.593  0.00  0.00     0.002 C 
HETATM    8  C   UNK N   1     140.590 175.556 158.831  0.00  0.00     0.004 A 
HETATM    9  C   UNK N   1     140.562 174.931 156.318  0.00  0.00     0.040 C 
HETATM   10  C   UNK N   1     142.687 171.546 157.231  0.00  0.00     0.015 C 
HETATM   11  C   UNK N   1     143.303 173.926 157.643  0.00  0.00     0.015 C 
HETATM   12  C   UNK N   1     140.674 175.928 157.454  0.00  0.00    -0.047 A 
HETATM   13  C   UNK N   1     140.676 176.596 159.808  0.00  0.00     0.107 A 
HETATM   14  C   UNK N   1     140.884 177.271 157.097  0.00  0.00     0.018 A 
HETATM   15  C   UNK N   1     140.986 178.281 158.062  0.00  0.00    -0.018 A 
HETATM   16  C   UNK N   1     140.871 177.938 159.419  0.00  0.00     0.108 A 
ENDROOT
BRANCH   2  17
HETATM   17  C   UNK N   1     138.768 173.926 159.340  0.00  0.00     0.154 C 
HETATM   18  O   UNK N   1     138.264 172.922 159.829  0.00  0.00    -0.649 OA
BRANCH  17  19
HETATM   19  O   UNK N   1     137.967 174.930 158.915  0.00  0.00    -0.775 OA
HETATM   20  H   UNK N   1     137.432 175.444 159.536  0.00  0.00     0.167 HD
ENDBRANCH  17  19
ENDBRANCH   2  17
BRANCH  13  21
HETATM   21  O   UNK N   1     140.562 176.315 161.121  0.00  0.00    -0.357 OA
HETATM   22  H   UNK N   1     140.317 175.444 161.462  0.00  0.00     0.218 HD
ENDBRANCH  13  21
BRANCH  16  23
HETATM   23  O   UNK N   1     140.934 178.904 160.365  0.00  0.00    -0.353 OA
HETATM   24  C   UNK N   1     139.838 179.684 160.671  0.00  0.00     0.210 C 
ENDBRANCH  16  23
BRANCH  15  25
HETATM   25  C   UNK N   1     141.200 179.736 157.645  0.00  0.00     0.013 C 
HETATM   26  C   UNK N   1     140.558 180.023 156.282  0.00  0.00     0.015 C 
HETATM   27  C   UNK N   1     142.690 180.096 157.638  0.00  0.00     0.015 C 
ENDBRANCH  15  25
TORSDOF 5
ENDMDL
