MODEL 1
REMARK VINA RESULT:      -8.6      0.000      0.000
REMARK  0 active torsions:
REMARK  status: ('A' for Active; 'I' for Inactive)
ROOT
HETATM    1  O   UNK N   1     149.295 150.726 145.000  0.00  0.00    -0.326 OA
HETATM    2  O   UNK N   1     149.488 150.142 147.119  0.00  0.00    -0.264 OA
HETATM    3  O   UNK N   1     150.843 148.077 144.343  0.00  0.00    -0.357 OA
HETATM    4  O   UNK N   1     150.354 148.269 141.678  0.00  0.00    -0.357 OA
HETATM    5  C   UNK N   1     152.307 151.630 146.583  0.00  0.00     0.017 C 
HETATM    6  C   UNK N   1     151.611 150.359 145.962  0.00  0.00     0.082 C 
HETATM    7  C   UNK N   1     151.967 151.907 148.107  0.00  0.00    -0.043 C 
HETATM    8  C   UNK N   1     152.152 149.114 146.761  0.00  0.00     0.025 C 
HETATM    9  C   UNK N   1     151.792 150.553 148.886  0.00  0.00     0.009 C 
HETATM   10  C   UNK N   1     152.206 152.876 145.682  0.00  0.00     0.011 C 
HETATM   11  C   UNK N   1     152.606 149.425 148.230  0.00  0.00     0.002 C 
HETATM   12  C   UNK N   1     151.801 150.272 144.413  0.00  0.00     0.003 C 
HETATM   13  C   UNK N   1     152.927 152.555 144.391  0.00  0.00     0.040 C 
HETATM   14  C   UNK N   1     153.158 152.680 148.739  0.00  0.00     0.015 C 
HETATM   15  C   UNK N   1     150.713 152.804 148.303  0.00  0.00     0.015 C 
HETATM   16  C   UNK N   1     152.263 151.404 143.701  0.00  0.00    -0.047 C 
HETATM   17  C   UNK N   1     150.057 150.443 146.086  0.00  0.00     0.272 C 
HETATM   18  C   UNK N   1     151.235 149.193 143.682  0.00  0.00     0.107 C 
HETATM   19  C   UNK N   1     151.974 151.534 142.350  0.00  0.00     0.018 C 
HETATM   20  C   UNK N   1     151.265 150.555 141.650  0.00  0.00    -0.018 C 
HETATM   21  C   UNK N   1     150.979 149.310 142.295  0.00  0.00     0.106 C 
HETATM   22  C   UNK N   1     150.669 150.961 140.303  0.00  0.00     0.013 C 
HETATM   23  C   UNK N   1     149.652 152.089 140.583  0.00  0.00     0.213 C 
HETATM   24  C   UNK N   1     151.706 151.412 139.270  0.00  0.00     0.015 C 
HETATM   25  C   UNK N   1     150.545 147.824 140.382  0.00  0.00     0.015 C 
HETATM   26  H   UNK N   1     150.062 150.164 139.854  0.00  0.00     0.218 HD
HETATM   27  H   UNK N   1     149.121 152.390 139.657  0.00  0.00     0.218 HD
ENDROOT
TORSDOF 0
ENDMDL
MODEL 2
REMARK VINA RESULT:      -7.9     18.074     19.560
REMARK  0 active torsions:
REMARK  status: ('A' for Active; 'I' for Inactive)
ROOT
HETATM    1  O   UNK N   1     134.574 140.065 152.533  0.00  0.00    -0.326 OA
HETATM    2  O   UNK N   1     135.117 140.581 154.609  0.00  0.00    -0.264 OA
HETATM    3  O   UNK N   1     136.753 137.817 152.739  0.00  0.00    -0.357 OA
HETATM    4  O   UNK N   1     135.991 136.648 150.409  0.00  0.00    -0.357 OA
HETATM    5  C   UNK N   1     137.329 142.224 152.917  0.00  0.00     0.017 C 
HETATM    6  C   UNK N   1     136.974 140.694 153.049  0.00  0.00     0.082 C 
HETATM    7  C   UNK N   1     137.062 143.091 154.218  0.00  0.00    -0.043 C 
HETATM    8  C   UNK N   1     137.922 140.107 154.163  0.00  0.00     0.025 C 
HETATM    9  C   UNK N   1     137.356 142.247 155.511  0.00  0.00     0.009 C 
HETATM   10  C   UNK N   1     136.792 142.860 151.619  0.00  0.00     0.011 C 
HETATM   11  C   UNK N   1     138.397 141.149 155.234  0.00  0.00     0.002 C 
HETATM   12  C   UNK N   1     137.041 139.946 151.678  0.00  0.00     0.003 C 
HETATM   13  C   UNK N   1     137.455 142.144 150.463  0.00  0.00     0.040 C 
HETATM   14  C   UNK N   1     138.032 144.306 154.200  0.00  0.00     0.015 C 
HETATM   15  C   UNK N   1     135.627 143.683 154.278  0.00  0.00     0.015 C 
HETATM   16  C   UNK N   1     137.091 140.692 150.477  0.00  0.00    -0.047 C 
HETATM   17  C   UNK N   1     135.480 140.487 153.450  0.00  0.00     0.272 C 
HETATM   18  C   UNK N   1     136.746 138.558 151.605  0.00  0.00     0.107 C 
HETATM   19  C   UNK N   1     136.655 140.119 149.290  0.00  0.00     0.018 C 
HETATM   20  C   UNK N   1     136.199 138.800 149.233  0.00  0.00    -0.018 C 
HETATM   21  C   UNK N   1     136.343 137.964 150.384  0.00  0.00     0.106 C 
HETATM   22  C   UNK N   1     135.391 138.400 147.999  0.00  0.00     0.013 C 
HETATM   23  C   UNK N   1     134.122 139.280 147.986  0.00  0.00     0.213 C 
HETATM   24  C   UNK N   1     136.157 138.536 146.679  0.00  0.00     0.015 C 
HETATM   25  C   UNK N   1     136.184 135.710 149.411  0.00  0.00     0.015 C 
HETATM   26  H   UNK N   1     135.002 137.376 148.065  0.00  0.00     0.218 HD
HETATM   27  H   UNK N   1     133.446 138.997 147.154  0.00  0.00     0.218 HD
ENDROOT
TORSDOF 0
ENDMDL
MODEL 3
REMARK VINA RESULT:      -7.8     24.027     28.538
REMARK  0 active torsions:
REMARK  status: ('A' for Active; 'I' for Inactive)
ROOT
HETATM    1  O   UNK N   1     136.190 149.168 120.486  0.00  0.00    -0.326 OA
HETATM    2  O   UNK N   1     135.705 148.857 118.356  0.00  0.00    -0.264 OA
HETATM    3  O   UNK N   1     139.192 149.249 119.579  0.00  0.00    -0.357 OA
HETATM    4  O   UNK N   1     140.063 150.110 122.003  0.00  0.00    -0.357 OA
HETATM    5  C   UNK N   1     136.342 145.843 119.337  0.00  0.00     0.017 C 
HETATM    6  C   UNK N   1     137.187 147.172 119.284  0.00  0.00     0.082 C 
HETATM    7  C   UNK N   1     135.248 145.694 118.198  0.00  0.00    -0.043 C 
HETATM    8  C   UNK N   1     137.979 147.146 117.922  0.00  0.00     0.025 C 
HETATM    9  C   UNK N   1     135.760 146.336 116.858  0.00  0.00     0.009 C 
HETATM   10  C   UNK N   1     135.823 145.512 120.751  0.00  0.00     0.011 C 
HETATM   11  C   UNK N   1     137.295 146.315 116.781  0.00  0.00     0.002 C 
HETATM   12  C   UNK N   1     138.080 147.363 120.552  0.00  0.00     0.003 C 
HETATM   13  C   UNK N   1     137.034 145.311 121.635  0.00  0.00     0.040 C 
HETATM   14  C   UNK N   1     135.007 144.179 117.949  0.00  0.00     0.015 C 
HETATM   15  C   UNK N   1     133.869 146.295 118.588  0.00  0.00     0.015 C 
HETATM   16  C   UNK N   1     137.843 146.569 121.699  0.00  0.00    -0.047 C 
HETATM   17  C   UNK N   1     136.271 148.434 119.348  0.00  0.00     0.272 C 
HETATM   18  C   UNK N   1     138.907 148.511 120.679  0.00  0.00     0.107 C 
HETATM   19  C   UNK N   1     138.239 147.025 122.948  0.00  0.00     0.018 C 
HETATM   20  C   UNK N   1     138.908 148.241 123.110  0.00  0.00    -0.018 C 
HETATM   21  C   UNK N   1     139.347 148.953 121.950  0.00  0.00     0.106 C 
HETATM   22  C   UNK N   1     138.947 148.826 124.522  0.00  0.00     0.013 C 
HETATM   23  C   UNK N   1     137.485 149.097 124.938  0.00  0.00     0.213 C 
HETATM   24  C   UNK N   1     139.646 147.932 125.550  0.00  0.00     0.015 C 
HETATM   25  C   UNK N   1     141.093 150.421 122.874  0.00  0.00     0.015 C 
HETATM   26  H   UNK N   1     139.418 149.817 124.553  0.00  0.00     0.218 HD
HETATM   27  H   UNK N   1     137.434 149.593 125.928  0.00  0.00     0.218 HD
ENDROOT
TORSDOF 0
ENDMDL
MODEL 4
REMARK VINA RESULT:      -7.8     15.478     17.348
REMARK  0 active torsions:
REMARK  status: ('A' for Active; 'I' for Inactive)
ROOT
HETATM    1  O   UNK N   1     168.542 153.294 139.627  0.00  0.00    -0.326 OA
HETATM    2  O   UNK N   1     169.434 151.354 139.070  0.00  0.00    -0.264 OA
HETATM    3  O   UNK N   1     169.239 152.531 142.589  0.00  0.00    -0.357 OA
HETATM    4  O   UNK N   1     168.661 155.014 143.529  0.00  0.00    -0.357 OA
HETATM    5  C   UNK N   1     166.409 150.500 139.824  0.00  0.00     0.017 C 
HETATM    6  C   UNK N   1     167.583 151.174 140.631  0.00  0.00     0.082 C 
HETATM    7  C   UNK N   1     166.864 149.486 138.692  0.00  0.00    -0.043 C 
HETATM    8  C   UNK N   1     168.346 150.010 141.371  0.00  0.00     0.025 C 
HETATM    9  C   UNK N   1     168.160 148.714 139.135  0.00  0.00     0.009 C 
HETATM   10  C   UNK N   1     165.333 151.505 139.369  0.00  0.00     0.011 C 
HETATM   11  C   UNK N   1     168.251 148.612 140.667  0.00  0.00     0.002 C 
HETATM   12  C   UNK N   1     167.084 152.322 141.566  0.00  0.00     0.003 C 
HETATM   13  C   UNK N   1     164.730 152.111 140.618  0.00  0.00     0.040 C 
HETATM   14  C   UNK N   1     165.727 148.447 138.483  0.00  0.00     0.015 C 
HETATM   15  C   UNK N   1     167.090 150.166 137.314  0.00  0.00     0.015 C 
HETATM   16  C   UNK N   1     165.780 152.844 141.394  0.00  0.00    -0.047 C 
HETATM   17  C   UNK N   1     168.560 151.939 139.684  0.00  0.00     0.272 C 
HETATM   18  C   UNK N   1     168.007 153.047 142.366  0.00  0.00     0.107 C 
HETATM   19  C   UNK N   1     165.490 154.131 141.826  0.00  0.00     0.018 C 
HETATM   20  C   UNK N   1     166.443 154.926 142.467  0.00  0.00    -0.018 C 
HETATM   21  C   UNK N   1     167.694 154.343 142.843  0.00  0.00     0.106 C 
HETATM   22  C   UNK N   1     166.156 156.425 142.544  0.00  0.00     0.013 C 
HETATM   23  C   UNK N   1     166.090 156.946 141.093  0.00  0.00     0.213 C 
HETATM   24  C   UNK N   1     164.875 156.778 143.305  0.00  0.00     0.015 C 
HETATM   25  C   UNK N   1     168.486 155.893 144.582  0.00  0.00     0.015 C 
HETATM   26  H   UNK N   1     166.986 156.989 142.989  0.00  0.00     0.218 HD
HETATM   27  H   UNK N   1     165.955 158.046 141.066  0.00  0.00     0.218 HD
ENDROOT
TORSDOF 0
ENDMDL
MODEL 5
REMARK VINA RESULT:      -7.7      9.723     14.009
REMARK  0 active torsions:
REMARK  status: ('A' for Active; 'I' for Inactive)
ROOT
HETATM    1  O   UNK N   1     152.766 159.056 155.100  0.00  0.00    -0.326 OA
HETATM    2  O   UNK N   1     153.771 157.499 153.902  0.00  0.00    -0.264 OA
HETATM    3  O   UNK N   1     151.157 156.710 156.424  0.00  0.00    -0.357 OA
HETATM    4  O   UNK N   1     150.110 158.309 158.353  0.00  0.00    -0.357 OA
HETATM    5  C   UNK N   1     151.089 158.033 152.177  0.00  0.00     0.017 C 
HETATM    6  C   UNK N   1     151.356 157.530 153.647  0.00  0.00     0.082 C 
HETATM    7  C   UNK N   1     152.201 157.637 151.118  0.00  0.00    -0.043 C 
HETATM    8  C   UNK N   1     151.360 155.956 153.590  0.00  0.00     0.025 C 
HETATM    9  C   UNK N   1     152.796 156.220 151.449  0.00  0.00     0.009 C 
HETATM   10  C   UNK N   1     150.660 159.512 152.113  0.00  0.00     0.011 C 
HETATM   11  C   UNK N   1     151.777 155.351 152.204  0.00  0.00     0.002 C 
HETATM   12  C   UNK N   1     150.354 158.141 154.679  0.00  0.00     0.003 C 
HETATM   13  C   UNK N   1     149.358 159.634 152.873  0.00  0.00     0.040 C 
HETATM   14  C   UNK N   1     151.534 157.567 149.715  0.00  0.00     0.015 C 
HETATM   15  C   UNK N   1     153.342 158.685 151.004  0.00  0.00     0.015 C 
HETATM   16  C   UNK N   1     149.558 159.250 154.306  0.00  0.00    -0.047 C 
HETATM   17  C   UNK N   1     152.724 158.052 154.188  0.00  0.00     0.272 C 
HETATM   18  C   UNK N   1     150.449 157.804 156.055  0.00  0.00     0.107 C 
HETATM   19  C   UNK N   1     149.061 160.102 155.283  0.00  0.00     0.018 C 
HETATM   20  C   UNK N   1     149.291 159.877 156.642  0.00  0.00    -0.018 C 
HETATM   21  C   UNK N   1     149.904 158.651 157.050  0.00  0.00     0.106 C 
HETATM   22  C   UNK N   1     149.048 161.053 157.589  0.00  0.00     0.013 C 
HETATM   23  C   UNK N   1     150.033 162.170 157.181  0.00  0.00     0.213 C 
HETATM   24  C   UNK N   1     147.607 161.573 157.584  0.00  0.00     0.015 C 
HETATM   25  C   UNK N   1     149.250 158.508 159.418  0.00  0.00     0.015 C 
HETATM   26  H   UNK N   1     149.326 160.822 158.626  0.00  0.00     0.218 HD
HETATM   27  H   UNK N   1     149.967 163.035 157.871  0.00  0.00     0.218 HD
ENDROOT
TORSDOF 0
ENDMDL
MODEL 6
REMARK VINA RESULT:      -7.7     38.883     42.338
REMARK  0 active torsions:
REMARK  status: ('A' for Active; 'I' for Inactive)
ROOT
HETATM    1  O   UNK N   1     135.268 166.370 179.569  0.00  0.00    -0.326 OA
HETATM    2  O   UNK N   1     133.498 165.493 178.585  0.00  0.00    -0.264 OA
HETATM    3  O   UNK N   1     133.273 168.409 180.878  0.00  0.00    -0.357 OA
HETATM    4  O   UNK N   1     135.149 169.389 182.581  0.00  0.00    -0.357 OA
HETATM    5  C   UNK N   1     134.249 167.904 176.568  0.00  0.00     0.017 C 
HETATM    6  C   UNK N   1     133.834 167.845 178.087  0.00  0.00     0.082 C 
HETATM    7  C   UNK N   1     133.623 166.769 175.654  0.00  0.00    -0.043 C 
HETATM    8  C   UNK N   1     132.274 168.059 178.136  0.00  0.00     0.025 C 
HETATM    9  C   UNK N   1     132.170 166.413 176.138  0.00  0.00     0.009 C 
HETATM   10  C   UNK N   1     135.762 168.112 176.361  0.00  0.00     0.011 C 
HETATM   11  C   UNK N   1     131.510 167.609 176.843  0.00  0.00     0.002 C 
HETATM   12  C   UNK N   1     134.655 168.840 178.969  0.00  0.00     0.003 C 
HETATM   13  C   UNK N   1     136.119 169.447 176.977  0.00  0.00     0.040 C 
HETATM   14  C   UNK N   1     133.532 167.309 174.200  0.00  0.00     0.015 C 
HETATM   15  C   UNK N   1     134.495 165.485 175.586  0.00  0.00     0.015 C 
HETATM   16  C   UNK N   1     135.829 169.433 178.445  0.00  0.00    -0.047 C 
HETATM   17  C   UNK N   1     134.208 166.471 178.727  0.00  0.00     0.272 C 
HETATM   18  C   UNK N   1     134.420 168.919 180.368  0.00  0.00     0.107 C 
HETATM   19  C   UNK N   1     136.815 169.890 179.308  0.00  0.00     0.018 C 
HETATM   20  C   UNK N   1     136.671 169.819 180.696  0.00  0.00    -0.018 C 
HETATM   21  C   UNK N   1     135.410 169.425 181.244  0.00  0.00     0.106 C 
HETATM   22  C   UNK N   1     137.941 169.976 181.532  0.00  0.00     0.013 C 
HETATM   23  C   UNK N   1     138.878 168.811 181.152  0.00  0.00     0.213 C 
HETATM   24  C   UNK N   1     138.648 171.323 181.348  0.00  0.00     0.015 C 
HETATM   25  C   UNK N   1     135.547 170.304 183.539  0.00  0.00     0.015 C 
HETATM   26  H   UNK N   1     137.758 169.829 182.605  0.00  0.00     0.218 HD
HETATM   27  H   UNK N   1     139.797 168.815 181.772  0.00  0.00     0.218 HD
ENDROOT
TORSDOF 0
ENDMDL
MODEL 7
REMARK VINA RESULT:      -7.6     10.226     14.842
REMARK  0 active torsions:
REMARK  status: ('A' for Active; 'I' for Inactive)
ROOT
HETATM    1  O   UNK N   1     148.951 159.525 154.056  0.00  0.00    -0.326 OA
HETATM    2  O   UNK N   1     150.063 159.852 152.178  0.00  0.00    -0.264 OA
HETATM    3  O   UNK N   1     151.026 161.468 155.383  0.00  0.00    -0.357 OA
HETATM    4  O   UNK N   1     149.611 161.649 157.695  0.00  0.00    -0.357 OA
HETATM    5  C   UNK N   1     151.776 157.482 153.557  0.00  0.00     0.017 C 
HETATM    6  C   UNK N   1     151.420 158.958 153.982  0.00  0.00     0.082 C 
HETATM    7  C   UNK N   1     151.908 157.245 151.994  0.00  0.00    -0.043 C 
HETATM    8  C   UNK N   1     152.618 159.864 153.505  0.00  0.00     0.025 C 
HETATM    9  C   UNK N   1     152.518 158.514 151.295  0.00  0.00     0.009 C 
HETATM   10  C   UNK N   1     150.924 156.422 154.282  0.00  0.00     0.011 C 
HETATM   11  C   UNK N   1     153.405 159.311 152.266  0.00  0.00     0.002 C 
HETATM   12  C   UNK N   1     151.081 159.076 155.503  0.00  0.00     0.003 C 
HETATM   13  C   UNK N   1     151.217 156.547 155.761  0.00  0.00     0.040 C 
HETATM   14  C   UNK N   1     152.875 156.050 151.764  0.00  0.00     0.015 C 
HETATM   15  C   UNK N   1     150.565 156.853 151.317  0.00  0.00     0.015 C 
HETATM   16  C   UNK N   1     150.823 157.905 156.253  0.00  0.00    -0.047 C 
HETATM   17  C   UNK N   1     150.089 159.437 153.322  0.00  0.00     0.272 C 
HETATM   18  C   UNK N   1     150.731 160.334 156.063  0.00  0.00     0.107 C 
HETATM   19  C   UNK N   1     150.058 157.981 157.409  0.00  0.00     0.018 C 
HETATM   20  C   UNK N   1     149.559 159.196 157.884  0.00  0.00    -0.018 C 
HETATM   21  C   UNK N   1     149.987 160.412 157.265  0.00  0.00     0.106 C 
HETATM   22  C   UNK N   1     148.429 159.126 158.911  0.00  0.00     0.013 C 
HETATM   23  C   UNK N   1     147.237 158.429 158.222  0.00  0.00     0.213 C 
HETATM   24  C   UNK N   1     148.806 158.402 160.207  0.00  0.00     0.015 C 
HETATM   25  C   UNK N   1     149.490 162.081 159.004  0.00  0.00     0.015 C 
HETATM   26  H   UNK N   1     148.039 160.118 159.174  0.00  0.00     0.218 HD
HETATM   27  H   UNK N   1     146.348 158.405 158.884  0.00  0.00     0.218 HD
ENDROOT
TORSDOF 0
ENDMDL
MODEL 8
REMARK VINA RESULT:      -7.6     17.193     18.221
REMARK  0 active torsions:
REMARK  status: ('A' for Active; 'I' for Inactive)
ROOT
HETATM    1  O   UNK N   1     140.855 133.476 143.638  0.00  0.00    -0.326 OA
HETATM    2  O   UNK N   1     142.349 132.611 145.013  0.00  0.00    -0.264 OA
HETATM    3  O   UNK N   1     143.255 133.999 141.686  0.00  0.00    -0.357 OA
HETATM    4  O   UNK N   1     141.629 134.670 139.617  0.00  0.00    -0.357 OA
HETATM    5  C   UNK N   1     142.555 135.760 145.710  0.00  0.00     0.017 C 
HETATM    6  C   UNK N   1     142.796 134.917 144.400  0.00  0.00     0.082 C 
HETATM    7  C   UNK N   1     142.879 135.005 147.067  0.00  0.00    -0.043 C 
HETATM    8  C   UNK N   1     144.336 134.588 144.356  0.00  0.00     0.025 C 
HETATM    9  C   UNK N   1     144.104 134.039 146.878  0.00  0.00     0.009 C 
HETATM   10  C   UNK N   1     141.202 136.500 145.713  0.00  0.00     0.011 C 
HETATM   11  C   UNK N   1     145.035 134.533 145.758  0.00  0.00     0.002 C 
HETATM   12  C   UNK N   1     142.245 135.629 143.123  0.00  0.00     0.003 C 
HETATM   13  C   UNK N   1     141.219 137.469 144.552  0.00  0.00     0.040 C 
HETATM   14  C   UNK N   1     143.259 136.068 148.136  0.00  0.00     0.015 C 
HETATM   15  C   UNK N   1     141.665 134.226 147.642  0.00  0.00     0.015 C 
HETATM   16  C   UNK N   1     141.361 136.726 143.260  0.00  0.00    -0.047 C 
HETATM   17  C   UNK N   1     141.963 133.597 144.411  0.00  0.00     0.272 C 
HETATM   18  C   UNK N   1     142.370 135.011 141.850  0.00  0.00     0.107 C 
HETATM   19  C   UNK N   1     140.491 137.044 142.227  0.00  0.00     0.018 C 
HETATM   20  C   UNK N   1     140.484 136.333 141.024  0.00  0.00    -0.018 C 
HETATM   21  C   UNK N   1     141.510 135.366 140.782  0.00  0.00     0.106 C 
HETATM   22  C   UNK N   1     139.256 136.499 140.130  0.00  0.00     0.013 C 
HETATM   23  C   UNK N   1     138.043 135.976 140.929  0.00  0.00     0.213 C 
HETATM   24  C   UNK N   1     139.014 137.936 139.659  0.00  0.00     0.015 C 
HETATM   25  C   UNK N   1     141.448 135.149 138.332  0.00  0.00     0.015 C 
HETATM   26  H   UNK N   1     139.289 135.849 139.245  0.00  0.00     0.218 HD
HETATM   27  H   UNK N   1     137.119 135.996 140.316  0.00  0.00     0.218 HD
ENDROOT
TORSDOF 0
ENDMDL
MODEL 9
REMARK VINA RESULT:      -7.4     21.801     24.649
REMARK  0 active torsions:
REMARK  status: ('A' for Active; 'I' for Inactive)
ROOT
HETATM    1  O   UNK N   1     138.806 151.630 122.135  0.00  0.00    -0.326 OA
HETATM    2  O   UNK N   1     139.815 153.274 123.207  0.00  0.00    -0.264 OA
HETATM    3  O   UNK N   1     137.782 150.697 124.951  0.00  0.00    -0.357 OA
HETATM    4  O   UNK N   1     136.060 148.881 123.895  0.00  0.00    -0.357 OA
HETATM    5  C   UNK N   1     141.975 150.884 123.477  0.00  0.00     0.017 C 
HETATM    6  C   UNK N   1     140.482 151.060 123.950  0.00  0.00     0.082 C 
HETATM    7  C   UNK N   1     142.828 152.220 123.426  0.00  0.00    -0.043 C 
HETATM    8  C   UNK N   1     140.539 151.595 125.430  0.00  0.00     0.025 C 
HETATM    9  C   UNK N   1     142.401 153.189 124.588  0.00  0.00     0.009 C 
HETATM   10  C   UNK N   1     142.111 150.005 122.217  0.00  0.00     0.011 C 
HETATM   11  C   UNK N   1     141.834 152.406 125.784  0.00  0.00     0.002 C 
HETATM   12  C   UNK N   1     139.638 149.759 123.760  0.00  0.00     0.003 C 
HETATM   13  C   UNK N   1     141.586 148.631 122.571  0.00  0.00     0.040 C 
HETATM   14  C   UNK N   1     144.324 151.850 123.627  0.00  0.00     0.015 C 
HETATM   15  C   UNK N   1     142.742 152.952 122.058  0.00  0.00     0.015 C 
HETATM   16  C   UNK N   1     140.140 148.712 122.951  0.00  0.00    -0.047 C 
HETATM   17  C   UNK N   1     139.712 152.072 123.043  0.00  0.00     0.272 C 
HETATM   18  C   UNK N   1     138.266 149.736 124.128  0.00  0.00     0.107 C 
HETATM   19  C   UNK N   1     139.262 147.810 122.366  0.00  0.00     0.018 C 
HETATM   20  C   UNK N   1     137.884 147.877 122.583  0.00  0.00    -0.018 C 
HETATM   21  C   UNK N   1     137.378 148.787 123.563  0.00  0.00     0.106 C 
HETATM   22  C   UNK N   1     136.992 147.110 121.608  0.00  0.00     0.013 C 
HETATM   23  C   UNK N   1     137.222 147.721 120.209  0.00  0.00     0.213 C 
HETATM   24  C   UNK N   1     137.243 145.599 121.587  0.00  0.00     0.015 C 
HETATM   25  C   UNK N   1     135.158 147.844 124.050  0.00  0.00     0.015 C 
HETATM   26  H   UNK N   1     135.923 147.276 121.796  0.00  0.00     0.218 HD
HETATM   27  H   UNK N   1     136.553 147.262 119.455  0.00  0.00     0.218 HD
ENDROOT
TORSDOF 0
ENDMDL
