MODEL 1
REMARK VINA RESULT:      -7.2      0.000      0.000
REMARK  4 active torsions:
REMARK  status: ('A' for Active; 'I' for Inactive)
REMARK    1  A    between atoms: O_1  and  C_16 
REMARK    2  A    between atoms: O_3  and  C_20 
REMARK    3  A    between atoms: C_5  and  C_16 
REMARK    4  A    between atoms: C_19  and  C_21 
ROOT
HETATM    1  C   UNK N   1     150.898 157.623 152.340  0.00  0.00     0.017 C 
HETATM    2  C   UNK N   1     151.906 156.703 151.570  0.00  0.00     0.077 C 
HETATM    3  C   UNK N   1     151.610 158.634 153.339  0.00  0.00    -0.043 C 
HETATM    4  C   UNK N   1     152.789 157.667 150.677  0.00  0.00     0.026 C 
HETATM    5  C   UNK N   1     153.023 159.053 152.799  0.00  0.00     0.009 C 
HETATM    6  C   UNK N   1     149.743 156.827 152.961  0.00  0.00     0.011 C 
HETATM    7  C   UNK N   1     153.040 159.081 151.273  0.00  0.00     0.002 C 
HETATM    8  C   UNK N   1     151.180 155.676 150.686  0.00  0.00    -0.030 A 
HETATM    9  C   UNK N   1     148.944 156.108 151.876  0.00  0.00     0.039 C 
HETATM   10  C   UNK N   1     150.713 159.894 153.464  0.00  0.00     0.015 C 
HETATM   11  C   UNK N   1     151.806 158.070 154.769  0.00  0.00     0.015 C 
HETATM   12  C   UNK N   1     149.792 155.413 150.838  0.00  0.00    -0.050 A 
HETATM   13  C   UNK N   1     151.899 154.958 149.709  0.00  0.00     0.046 A 
HETATM   14  C   UNK N   1     149.163 154.478 150.003  0.00  0.00     0.018 A 
HETATM   15  C   UNK N   1     149.882 153.776 149.025  0.00  0.00    -0.021 A 
HETATM   16  C   UNK N   1     151.262 154.022 148.885  0.00  0.00     0.075 A 
ENDROOT
BRANCH   2  17
HETATM   17  C   UNK N   1     152.766 155.864 152.526  0.00  0.00     0.154 C 
HETATM   18  O   UNK N   1     152.275 154.968 153.196  0.00  0.00    -0.649 OA
BRANCH  17  19
HETATM   19  O   UNK N   1     154.078 156.155 152.676  0.00  0.00    -0.775 OA
HETATM   20  H   UNK N   1     154.704 156.048 151.946  0.00  0.00     0.167 HD
ENDBRANCH  17  19
ENDBRANCH   2  17
BRANCH  16  21
HETATM   21  O   UNK N   1     151.982 153.354 147.958  0.00  0.00    -0.355 OA
HETATM   22  C   UNK N   1     153.147 152.702 148.297  0.00  0.00     0.210 C 
ENDBRANCH  16  21
BRANCH  15  23
HETATM   23  C   UNK N   1     149.182 152.746 148.144  0.00  0.00     0.013 C 
HETATM   24  C   UNK N   1     147.659 152.898 148.215  0.00  0.00     0.015 C 
HETATM   25  C   UNK N   1     149.610 151.323 148.524  0.00  0.00     0.015 C 
ENDBRANCH  15  23
TORSDOF 4
ENDMDL
MODEL 2
REMARK VINA RESULT:      -7.1     24.857     28.447
REMARK  4 active torsions:
REMARK  status: ('A' for Active; 'I' for Inactive)
REMARK    1  A    between atoms: O_1  and  C_16 
REMARK    2  A    between atoms: O_3  and  C_20 
REMARK    3  A    between atoms: C_5  and  C_16 
REMARK    4  A    between atoms: C_19  and  C_21 
ROOT
HETATM    1  C   UNK N   1     167.242 135.146 148.009  0.00  0.00     0.017 C 
HETATM    2  C   UNK N   1     167.621 134.485 149.379  0.00  0.00     0.077 C 
HETATM    3  C   UNK N   1     165.672 135.290 147.797  0.00  0.00    -0.043 C 
HETATM    4  C   UNK N   1     167.107 135.476 150.502  0.00  0.00     0.026 C 
HETATM    5  C   UNK N   1     164.940 135.508 149.168  0.00  0.00     0.009 C 
HETATM    6  C   UNK N   1     167.984 134.504 146.830  0.00  0.00     0.011 C 
HETATM    7  C   UNK N   1     165.824 136.278 150.144  0.00  0.00     0.002 C 
HETATM    8  C   UNK N   1     169.138 134.276 149.509  0.00  0.00    -0.030 A 
HETATM    9  C   UNK N   1     169.493 134.667 146.994  0.00  0.00     0.039 C 
HETATM   10  C   UNK N   1     165.425 136.516 146.879  0.00  0.00     0.015 C 
HETATM   11  C   UNK N   1     165.017 134.065 147.108  0.00  0.00     0.015 C 
HETATM   12  C   UNK N   1     170.002 134.369 148.385  0.00  0.00    -0.050 A 
HETATM   13  C   UNK N   1     169.699 133.965 150.765  0.00  0.00     0.046 A 
HETATM   14  C   UNK N   1     171.383 134.184 148.547  0.00  0.00     0.018 A 
HETATM   15  C   UNK N   1     171.934 133.887 149.801  0.00  0.00    -0.021 A 
HETATM   16  C   UNK N   1     171.078 133.776 150.915  0.00  0.00     0.075 A 
ENDROOT
BRANCH   2  17
HETATM   17  C   UNK N   1     167.013 133.084 149.531  0.00  0.00     0.154 C 
HETATM   18  O   UNK N   1     166.257 132.820 150.452  0.00  0.00    -0.649 OA
BRANCH  17  19
HETATM   19  O   UNK N   1     167.363 132.106 148.664  0.00  0.00    -0.775 OA
HETATM   20  H   UNK N   1     167.987 132.271 147.943  0.00  0.00     0.167 HD
ENDBRANCH  17  19
ENDBRANCH   2  17
BRANCH  16  21
HETATM   21  O   UNK N   1     171.580 133.481 152.133  0.00  0.00    -0.355 OA
HETATM   22  C   UNK N   1     171.435 134.350 153.191  0.00  0.00     0.210 C 
ENDBRANCH  16  21
BRANCH  15  23
HETATM   23  C   UNK N   1     173.436 133.666 149.950  0.00  0.00     0.013 C 
HETATM   24  C   UNK N   1     174.230 134.631 149.063  0.00  0.00     0.015 C 
HETATM   25  C   UNK N   1     173.805 132.209 149.643  0.00  0.00     0.015 C 
ENDBRANCH  15  23
TORSDOF 4
ENDMDL
MODEL 3
REMARK VINA RESULT:      -7.0     30.696     35.254
REMARK  4 active torsions:
REMARK  status: ('A' for Active; 'I' for Inactive)
REMARK    1  A    between atoms: O_1  and  C_16 
REMARK    2  A    between atoms: O_3  and  C_20 
REMARK    3  A    between atoms: C_5  and  C_16 
REMARK    4  A    between atoms: C_19  and  C_21 
ROOT
HETATM    1  C   UNK N   1     136.169 145.740 119.059  0.00  0.00     0.017 C 
HETATM    2  C   UNK N   1     136.912 147.120 119.043  0.00  0.00     0.077 C 
HETATM    3  C   UNK N   1     135.234 145.517 117.791  0.00  0.00    -0.043 C 
HETATM    4  C   UNK N   1     137.868 147.090 117.781  0.00  0.00     0.026 C 
HETATM    5  C   UNK N   1     135.822 146.241 116.529  0.00  0.00     0.009 C 
HETATM    6  C   UNK N   1     135.487 145.463 120.405  0.00  0.00     0.011 C 
HETATM    7  C   UNK N   1     137.347 146.264 116.571  0.00  0.00     0.002 C 
HETATM    8  C   UNK N   1     137.731 147.341 120.325  0.00  0.00    -0.030 A 
HETATM    9  C   UNK N   1     136.519 145.421 121.529  0.00  0.00     0.039 C 
HETATM   10  C   UNK N   1     135.153 143.992 117.520  0.00  0.00     0.015 C 
HETATM   11  C   UNK N   1     133.782 146.024 117.985  0.00  0.00     0.015 C 
HETATM   12  C   UNK N   1     137.539 146.534 121.479  0.00  0.00    -0.050 A 
HETATM   13  C   UNK N   1     138.686 148.377 120.379  0.00  0.00     0.046 A 
HETATM   14  C   UNK N   1     138.315 146.759 122.625  0.00  0.00     0.018 A 
HETATM   15  C   UNK N   1     139.270 147.784 122.667  0.00  0.00    -0.021 A 
HETATM   16  C   UNK N   1     139.450 148.597 121.531  0.00  0.00     0.075 A 
ENDROOT
BRANCH   2  17
HETATM   17  C   UNK N   1     135.933 148.301 118.989  0.00  0.00     0.154 C 
HETATM   18  O   UNK N   1     135.942 149.087 118.055  0.00  0.00    -0.649 OA
BRANCH  17  19
HETATM   19  O   UNK N   1     135.083 148.512 120.019  0.00  0.00    -0.775 OA
HETATM   20  H   UNK N   1     134.868 147.808 120.647  0.00  0.00     0.167 HD
ENDBRANCH  17  19
ENDBRANCH   2  17
BRANCH  16  21
HETATM   21  O   UNK N   1     140.357 149.597 121.546  0.00  0.00    -0.355 OA
HETATM   22  C   UNK N   1     141.477 149.553 120.747  0.00  0.00     0.210 C 
ENDBRANCH  16  21
BRANCH  15  23
HETATM   23  C   UNK N   1     140.086 148.026 123.934  0.00  0.00     0.013 C 
HETATM   24  C   UNK N   1     141.363 147.179 123.943  0.00  0.00     0.015 C 
HETATM   25  C   UNK N   1     139.240 147.758 125.185  0.00  0.00     0.015 C 
ENDBRANCH  15  23
TORSDOF 4
ENDMDL
MODEL 4
REMARK VINA RESULT:      -7.0      3.670      7.868
REMARK  4 active torsions:
REMARK  status: ('A' for Active; 'I' for Inactive)
REMARK    1  A    between atoms: O_1  and  C_16 
REMARK    2  A    between atoms: O_3  and  C_20 
REMARK    3  A    between atoms: C_5  and  C_16 
REMARK    4  A    between atoms: C_19  and  C_21 
ROOT
HETATM    1  C   UNK N   1     151.837 157.299 153.723  0.00  0.00     0.017 C 
HETATM    2  C   UNK N   1     151.490 158.798 154.022  0.00  0.00     0.077 C 
HETATM    3  C   UNK N   1     152.453 157.076 152.274  0.00  0.00    -0.043 C 
HETATM    4  C   UNK N   1     152.865 159.582 153.995  0.00  0.00     0.026 C 
HETATM    5  C   UNK N   1     153.279 158.330 151.818  0.00  0.00     0.009 C 
HETATM    6  C   UNK N   1     150.681 156.354 154.072  0.00  0.00     0.011 C 
HETATM    7  C   UNK N   1     153.931 159.020 153.013  0.00  0.00     0.002 C 
HETATM    8  C   UNK N   1     150.811 158.963 155.392  0.00  0.00    -0.030 A 
HETATM    9  C   UNK N   1     150.348 156.440 155.559  0.00  0.00     0.039 C 
HETATM   10  C   UNK N   1     153.386 155.839 152.336  0.00  0.00     0.015 C 
HETATM   11  C   UNK N   1     151.393 156.793 151.178  0.00  0.00     0.015 C 
HETATM   12  C   UNK N   1     150.287 157.849 156.102  0.00  0.00    -0.050 A 
HETATM   13  C   UNK N   1     150.683 160.246 155.962  0.00  0.00     0.046 A 
HETATM   14  C   UNK N   1     149.686 158.039 157.355  0.00  0.00     0.018 A 
HETATM   15  C   UNK N   1     149.572 159.317 157.920  0.00  0.00    -0.021 A 
HETATM   16  C   UNK N   1     150.076 160.425 157.211  0.00  0.00     0.075 A 
ENDROOT
BRANCH   2  17
HETATM   17  C   UNK N   1     150.486 159.369 153.012  0.00  0.00     0.154 C 
HETATM   18  O   UNK N   1     150.771 160.327 152.310  0.00  0.00    -0.649 OA
BRANCH  17  19
HETATM   19  O   UNK N   1     149.243 158.842 152.933  0.00  0.00    -0.775 OA
HETATM   20  H   UNK N   1     149.097 157.886 152.979  0.00  0.00     0.167 HD
ENDBRANCH  17  19
ENDBRANCH   2  17
BRANCH  16  21
HETATM   21  O   UNK N   1     149.972 161.668 157.727  0.00  0.00    -0.355 OA
HETATM   22  C   UNK N   1     150.200 162.782 156.950  0.00  0.00     0.210 C 
ENDBRANCH  16  21
BRANCH  15  23
HETATM   23  C   UNK N   1     148.894 159.502 159.274  0.00  0.00     0.013 C 
HETATM   24  C   UNK N   1     149.185 158.323 160.208  0.00  0.00     0.015 C 
HETATM   25  C   UNK N   1     147.383 159.708 159.102  0.00  0.00     0.015 C 
ENDBRANCH  15  23
TORSDOF 4
ENDMDL
MODEL 5
REMARK VINA RESULT:      -6.9     26.808     28.444
REMARK  4 active torsions:
REMARK  status: ('A' for Active; 'I' for Inactive)
REMARK    1  A    between atoms: O_1  and  C_16 
REMARK    2  A    between atoms: O_3  and  C_20 
REMARK    3  A    between atoms: C_5  and  C_16 
REMARK    4  A    between atoms: C_19  and  C_21 
ROOT
HETATM    1  C   UNK N   1     161.808 133.421 166.039  0.00  0.00     0.017 C 
HETATM    2  C   UNK N   1     160.531 134.171 165.526  0.00  0.00     0.077 C 
HETATM    3  C   UNK N   1     163.166 134.072 165.526  0.00  0.00    -0.043 C 
HETATM    4  C   UNK N   1     160.595 135.625 166.151  0.00  0.00     0.026 C 
HETATM    5  C   UNK N   1     163.009 135.623 165.347  0.00  0.00     0.009 C 
HETATM    6  C   UNK N   1     161.714 131.905 165.829  0.00  0.00     0.011 C 
HETATM    7  C   UNK N   1     162.025 136.196 166.363  0.00  0.00     0.002 C 
HETATM    8  C   UNK N   1     159.240 133.461 165.963  0.00  0.00    -0.030 A 
HETATM    9  C   UNK N   1     160.527 131.330 166.598  0.00  0.00     0.039 C 
HETATM   10  C   UNK N   1     164.263 133.784 166.584  0.00  0.00     0.015 C 
HETATM   11  C   UNK N   1     163.668 133.495 164.178  0.00  0.00     0.015 C 
HETATM   12  C   UNK N   1     159.254 132.133 166.467  0.00  0.00    -0.050 A 
HETATM   13  C   UNK N   1     158.000 134.124 165.848  0.00  0.00     0.046 A 
HETATM   14  C   UNK N   1     158.056 131.524 166.867  0.00  0.00     0.018 A 
HETATM   15  C   UNK N   1     156.829 132.194 166.761  0.00  0.00    -0.021 A 
HETATM   16  C   UNK N   1     156.809 133.505 166.244  0.00  0.00     0.075 A 
ENDROOT
BRANCH   2  17
HETATM   17  C   UNK N   1     160.463 134.211 163.993  0.00  0.00     0.154 C 
HETATM   18  O   UNK N   1     160.239 133.201 163.345  0.00  0.00    -0.649 OA
BRANCH  17  19
HETATM   19  O   UNK N   1     160.711 135.370 163.343  0.00  0.00    -0.775 OA
HETATM   20  H   UNK N   1     160.251 136.188 163.578  0.00  0.00     0.167 HD
ENDBRANCH  17  19
ENDBRANCH   2  17
BRANCH  16  21
HETATM   21  O   UNK N   1     155.641 134.171 166.123  0.00  0.00    -0.355 OA
HETATM   22  C   UNK N   1     155.617 135.529 165.896  0.00  0.00     0.210 C 
ENDBRANCH  16  21
BRANCH  15  23
HETATM   23  C   UNK N   1     155.535 131.503 167.180  0.00  0.00     0.013 C 
HETATM   24  C   UNK N   1     155.707 130.758 168.508  0.00  0.00     0.015 C 
HETATM   25  C   UNK N   1     155.043 130.556 166.078  0.00  0.00     0.015 C 
ENDBRANCH  15  23
TORSDOF 4
ENDMDL
MODEL 6
REMARK VINA RESULT:      -6.8     21.468     26.060
REMARK  4 active torsions:
REMARK  status: ('A' for Active; 'I' for Inactive)
REMARK    1  A    between atoms: O_1  and  C_16 
REMARK    2  A    between atoms: O_3  and  C_20 
REMARK    3  A    between atoms: C_5  and  C_16 
REMARK    4  A    between atoms: C_19  and  C_21 
ROOT
HETATM    1  C   UNK N   1     132.358 137.138 147.204  0.00  0.00     0.017 C 
HETATM    2  C   UNK N   1     132.347 137.196 148.770  0.00  0.00     0.077 C 
HETATM    3  C   UNK N   1     131.211 136.215 146.603  0.00  0.00    -0.043 C 
HETATM    4  C   UNK N   1     130.973 137.869 149.176  0.00  0.00     0.026 C 
HETATM    5  C   UNK N   1     129.939 136.233 147.523  0.00  0.00     0.009 C 
HETATM    6  C   UNK N   1     133.757 136.855 146.643  0.00  0.00     0.011 C 
HETATM    7  C   UNK N   1     129.783 137.583 148.216  0.00  0.00     0.002 C 
HETATM    8  C   UNK N   1     133.524 138.018 149.319  0.00  0.00    -0.030 A 
HETATM    9  C   UNK N   1     134.731 137.958 147.051  0.00  0.00     0.039 C 
HETATM   10  C   UNK N   1     130.840 136.766 145.201  0.00  0.00     0.015 C 
HETATM   11  C   UNK N   1     131.630 134.735 146.415  0.00  0.00     0.015 C 
HETATM   12  C   UNK N   1     134.631 138.372 148.500  0.00  0.00    -0.050 A 
HETATM   13  C   UNK N   1     133.530 138.424 150.669  0.00  0.00     0.046 A 
HETATM   14  C   UNK N   1     135.679 139.135 149.034  0.00  0.00     0.018 A 
HETATM   15  C   UNK N   1     135.672 139.544 150.375  0.00  0.00    -0.021 A 
HETATM   16  C   UNK N   1     134.585 139.179 151.193  0.00  0.00     0.075 A 
ENDROOT
BRANCH   2  17
HETATM   17  C   UNK N   1     132.510 135.805 149.399  0.00  0.00     0.154 C 
HETATM   18  O   UNK N   1     131.643 135.331 150.117  0.00  0.00    -0.649 OA
BRANCH  17  19
HETATM   19  O   UNK N   1     133.655 135.112 149.203  0.00  0.00    -0.775 OA
HETATM   20  H   UNK N   1     134.433 135.257 149.758  0.00  0.00     0.167 HD
ENDBRANCH  17  19
ENDBRANCH   2  17
BRANCH  16  21
HETATM   21  O   UNK N   1     134.555 139.552 152.491  0.00  0.00    -0.355 OA
HETATM   22  C   UNK N   1     133.376 139.924 153.097  0.00  0.00     0.210 C 
ENDBRANCH  16  21
BRANCH  15  23
HETATM   23  C   UNK N   1     136.835 140.353 150.940  0.00  0.00     0.013 C 
HETATM   24  C   UNK N   1     137.435 141.280 149.878  0.00  0.00     0.015 C 
HETATM   25  C   UNK N   1     137.906 139.426 151.530  0.00  0.00     0.015 C 
ENDBRANCH  15  23
TORSDOF 4
ENDMDL
MODEL 7
REMARK VINA RESULT:      -6.8     19.251     22.770
REMARK  4 active torsions:
REMARK  status: ('A' for Active; 'I' for Inactive)
REMARK    1  A    between atoms: O_1  and  C_16 
REMARK    2  A    between atoms: O_3  and  C_20 
REMARK    3  A    between atoms: C_5  and  C_16 
REMARK    4  A    between atoms: C_19  and  C_21 
ROOT
HETATM    1  C   UNK N   1     135.675 141.406 152.792  0.00  0.00     0.017 C 
HETATM    2  C   UNK N   1     136.166 140.448 151.653  0.00  0.00     0.077 C 
HETATM    3  C   UNK N   1     136.838 142.306 153.398  0.00  0.00    -0.043 C 
HETATM    4  C   UNK N   1     136.668 141.382 150.478  0.00  0.00     0.026 C 
HETATM    5  C   UNK N   1     137.916 142.636 152.306  0.00  0.00     0.009 C 
HETATM    6  C   UNK N   1     134.828 140.676 153.841  0.00  0.00     0.011 C 
HETATM    7  C   UNK N   1     137.282 142.739 150.922  0.00  0.00     0.002 C 
HETATM    8  C   UNK N   1     135.038 139.528 151.157  0.00  0.00    -0.030 A 
HETATM    9  C   UNK N   1     133.578 140.078 153.198  0.00  0.00     0.039 C 
HETATM   10  C   UNK N   1     136.204 143.625 153.910  0.00  0.00     0.015 C 
HETATM   11  C   UNK N   1     137.573 141.657 154.598  0.00  0.00     0.015 C 
HETATM   12  C   UNK N   1     133.831 139.370 151.889  0.00  0.00    -0.050 A 
HETATM   13  C   UNK N   1     135.199 138.804 149.958  0.00  0.00     0.046 A 
HETATM   14  C   UNK N   1     132.820 138.532 151.396  0.00  0.00     0.018 A 
HETATM   15  C   UNK N   1     132.982 137.824 150.197  0.00  0.00    -0.021 A 
HETATM   16  C   UNK N   1     134.186 137.965 149.478  0.00  0.00     0.075 A 
ENDROOT
BRANCH   2  17
HETATM   17  C   UNK N   1     137.269 139.496 152.137  0.00  0.00     0.154 C 
HETATM   18  O   UNK N   1     138.357 139.457 151.584  0.00  0.00    -0.649 OA
BRANCH  17  19
HETATM   19  O   UNK N   1     137.017 138.644 153.157  0.00  0.00    -0.775 OA
HETATM   20  H   UNK N   1     137.545 137.844 153.287  0.00  0.00     0.167 HD
ENDBRANCH  17  19
ENDBRANCH   2  17
BRANCH  16  21
HETATM   21  O   UNK N   1     134.374 137.289 148.325  0.00  0.00    -0.355 OA
HETATM   22  C   UNK N   1     135.504 137.482 147.563  0.00  0.00     0.210 C 
ENDBRANCH  16  21
BRANCH  15  23
HETATM   23  C   UNK N   1     131.879 136.899 149.692  0.00  0.00     0.013 C 
HETATM   24  C   UNK N   1     130.789 137.685 148.955  0.00  0.00     0.015 C 
HETATM   25  C   UNK N   1     131.282 136.083 150.847  0.00  0.00     0.015 C 
ENDBRANCH  15  23
TORSDOF 4
ENDMDL
MODEL 8
REMARK VINA RESULT:      -6.7     36.653     39.522
REMARK  4 active torsions:
REMARK  status: ('A' for Active; 'I' for Inactive)
REMARK    1  A    between atoms: O_1  and  C_16 
REMARK    2  A    between atoms: O_3  and  C_20 
REMARK    3  A    between atoms: C_5  and  C_16 
REMARK    4  A    between atoms: C_19  and  C_21 
ROOT
HETATM    1  C   UNK N   1     152.009 143.413 185.973  0.00  0.00     0.017 C 
HETATM    2  C   UNK N   1     151.977 142.230 187.001  0.00  0.00     0.077 C 
HETATM    3  C   UNK N   1     150.803 143.374 184.937  0.00  0.00    -0.043 C 
HETATM    4  C   UNK N   1     150.653 142.417 187.848  0.00  0.00     0.026 C 
HETATM    5  C   UNK N   1     149.522 142.746 185.592  0.00  0.00     0.009 C 
HETATM    6  C   UNK N   1     153.390 143.588 185.331  0.00  0.00     0.011 C 
HETATM    7  C   UNK N   1     149.460 143.059 187.084  0.00  0.00     0.002 C 
HETATM    8  C   UNK N   1     153.205 142.245 187.925  0.00  0.00    -0.030 A 
HETATM    9  C   UNK N   1     154.440 143.900 186.396  0.00  0.00     0.039 C 
HETATM   10  C   UNK N   1     150.499 144.832 184.504  0.00  0.00     0.015 C 
HETATM   11  C   UNK N   1     151.110 142.571 183.647  0.00  0.00     0.015 C 
HETATM   12  C   UNK N   1     154.349 143.036 187.631  0.00  0.00    -0.050 A 
HETATM   13  C   UNK N   1     153.220 141.446 189.087  0.00  0.00     0.046 A 
HETATM   14  C   UNK N   1     155.444 143.033 188.506  0.00  0.00     0.018 A 
HETATM   15  C   UNK N   1     155.447 142.245 189.666  0.00  0.00    -0.021 A 
HETATM   16  C   UNK N   1     154.322 141.445 189.951  0.00  0.00     0.075 A 
ENDROOT
BRANCH   2  17
HETATM   17  C   UNK N   1     152.022 140.862 186.306  0.00  0.00     0.154 C 
HETATM   18  O   UNK N   1     151.094 140.073 186.402  0.00  0.00    -0.649 OA
BRANCH  17  19
HETATM   19  O   UNK N   1     153.129 140.496 185.620  0.00  0.00    -0.775 OA
HETATM   20  H   UNK N   1     153.069 139.971 184.810  0.00  0.00     0.167 HD
ENDBRANCH  17  19
ENDBRANCH   2  17
BRANCH  16  21
HETATM   21  O   UNK N   1     154.301 140.669 191.055  0.00  0.00    -0.355 OA
HETATM   22  C   UNK N   1     154.242 139.297 190.959  0.00  0.00     0.210 C 
ENDBRANCH  16  21
BRANCH  15  23
HETATM   23  C   UNK N   1     156.660 142.239 190.591  0.00  0.00     0.013 C 
HETATM   24  C   UNK N   1     156.895 143.621 191.208  0.00  0.00     0.015 C 
HETATM   25  C   UNK N   1     157.909 141.749 189.847  0.00  0.00     0.015 C 
ENDBRANCH  15  23
TORSDOF 4
ENDMDL
MODEL 9
REMARK VINA RESULT:      -6.6     31.729     35.213
REMARK  4 active torsions:
REMARK  status: ('A' for Active; 'I' for Inactive)
REMARK    1  A    between atoms: O_1  and  C_16 
REMARK    2  A    between atoms: O_3  and  C_20 
REMARK    3  A    between atoms: C_5  and  C_16 
REMARK    4  A    between atoms: C_19  and  C_21 
ROOT
HETATM    1  C   UNK N   1     133.951 167.996 176.514  0.00  0.00     0.017 C 
HETATM    2  C   UNK N   1     133.806 167.633 178.032  0.00  0.00     0.077 C 
HETATM    3  C   UNK N   1     133.077 167.070 175.562  0.00  0.00    -0.043 C 
HETATM    4  C   UNK N   1     132.292 167.909 178.406  0.00  0.00     0.026 C 
HETATM    5  C   UNK N   1     131.762 166.608 176.285  0.00  0.00     0.009 C 
HETATM    6  C   UNK N   1     135.418 168.135 176.088  0.00  0.00     0.011 C 
HETATM    7  C   UNK N   1     131.269 167.673 177.260  0.00  0.00     0.002 C 
HETATM    8  C   UNK N   1     134.735 168.485 178.912  0.00  0.00    -0.030 A 
HETATM    9  C   UNK N   1     136.101 169.251 176.875  0.00  0.00     0.039 C 
HETATM   10  C   UNK N   1     132.708 167.894 174.300  0.00  0.00     0.015 C 
HETATM   11  C   UNK N   1     133.814 165.796 175.076  0.00  0.00     0.015 C 
HETATM   12  C   UNK N   1     135.801 169.241 178.356  0.00  0.00    -0.050 A 
HETATM   13  C   UNK N   1     134.548 168.512 180.310  0.00  0.00     0.046 A 
HETATM   14  C   UNK N   1     136.619 170.015 179.191  0.00  0.00     0.018 A 
HETATM   15  C   UNK N   1     136.420 170.046 180.579  0.00  0.00    -0.021 A 
HETATM   16  C   UNK N   1     135.374 169.283 181.135  0.00  0.00     0.075 A 
ENDROOT
BRANCH   2  17
HETATM   17  C   UNK N   1     134.210 166.181 178.318  0.00  0.00     0.154 C 
HETATM   18  O   UNK N   1     135.351 165.792 178.122  0.00  0.00    -0.649 OA
BRANCH  17  19
HETATM   19  O   UNK N   1     133.277 165.298 178.742  0.00  0.00    -0.775 OA
HETATM   20  H   UNK N   1     132.331 165.473 178.633  0.00  0.00     0.167 HD
ENDBRANCH  17  19
ENDBRANCH   2  17
BRANCH  16  21
HETATM   21  O   UNK N   1     135.165 169.286 182.469  0.00  0.00    -0.355 OA
HETATM   22  C   UNK N   1     134.014 169.818 183.007  0.00  0.00     0.210 C 
ENDBRANCH  16  21
BRANCH  15  23
HETATM   23  C   UNK N   1     137.337 170.877 181.470  0.00  0.00     0.013 C 
HETATM   24  C   UNK N   1     136.694 172.220 181.831  0.00  0.00     0.015 C 
HETATM   25  C   UNK N   1     138.704 171.082 180.804  0.00  0.00     0.015 C 
ENDBRANCH  15  23
TORSDOF 4
ENDMDL
