MODEL 1
REMARK VINA RESULT:      -6.8      0.000      0.000
REMARK  7 active torsions:
REMARK  status: ('A' for Active; 'I' for Inactive)
REMARK    1  A    between atoms: O_2  and  C_19 
REMARK    2  A    between atoms: O_3  and  C_22 
REMARK       I    between atoms: N_4  and  C_18 
REMARK    3  A    between atoms: N_4  and  C_23 
REMARK    4  A    between atoms: N_5  and  C_25 
REMARK    5  A    between atoms: C_7  and  C_18 
REMARK    6  A    between atoms: C_21  and  C_24 
REMARK    7  A    between atoms: C_23  and  C_25 
ROOT
HETATM    1  C   UNK N   1     139.596 148.467 121.508  0.00  0.00     0.016 C 
HETATM    2  C   UNK N   1     138.348 147.595 122.009  0.00  0.00     0.075 C 
HETATM    3  C   UNK N   1     140.457 149.145 122.648  0.00  0.00    -0.043 C 
HETATM    4  C   UNK N   1     139.015 146.522 122.949  0.00  0.00     0.025 C 
HETATM    5  C   UNK N   1     140.915 148.035 123.629  0.00  0.00     0.009 C 
HETATM    6  C   UNK N   1     139.192 149.402 120.365  0.00  0.00     0.011 C 
HETATM    7  C   UNK N   1     139.767 147.170 124.133  0.00  0.00     0.002 C 
HETATM    8  C   UNK N   1     137.630 146.941 120.793  0.00  0.00     0.003 A 
HETATM    9  C   UNK N   1     138.770 148.573 119.155  0.00  0.00     0.040 C 
HETATM   10  C   UNK N   1     139.703 150.271 123.389  0.00  0.00     0.015 C 
HETATM   11  C   UNK N   1     141.759 149.765 122.069  0.00  0.00     0.015 C 
HETATM   12  C   UNK N   1     137.856 147.412 119.469  0.00  0.00    -0.047 A 
HETATM   13  C   UNK N   1     136.679 145.894 120.985  0.00  0.00     0.107 A 
HETATM   14  C   UNK N   1     137.208 146.809 118.388  0.00  0.00     0.018 A 
HETATM   15  C   UNK N   1     136.305 145.754 118.569  0.00  0.00    -0.018 A 
HETATM   16  C   UNK N   1     136.036 145.293 119.870  0.00  0.00     0.106 A 
ENDROOT
BRANCH   2  17
HETATM   17  C   UNK N   1     137.191 148.375 122.697  0.00  0.00     0.231 C 
HETATM   18  O   UNK N   1     136.626 149.257 122.068  0.00  0.00    -0.272 OA
HETATM   19  N   UNK N   1     136.726 148.051 123.946  0.00  0.00    -0.358 N 
HETATM   20  H   UNK N   1     137.161 147.301 124.493  0.00  0.00     0.162 HD
BRANCH  19  21
HETATM   21  C   UNK N   1     135.591 148.721 124.559  0.00  0.00     0.152 C 
BRANCH  21  22
HETATM   22  C   UNK N   1     134.351 147.806 124.625  0.00  0.00     0.290 C 
BRANCH  22  23
HETATM   23  N   UNK N   1     133.315 148.258 123.667  0.00  0.00     0.081 N 
HETATM   24  C   UNK N   1     133.377 149.714 123.451  0.00  0.00     0.309 C 
HETATM   25  C   UNK N   1     133.445 147.561 122.376  0.00  0.00     0.309 C 
ENDBRANCH  22  23
ENDBRANCH  21  22
ENDBRANCH  19  21
ENDBRANCH   2  17
BRANCH  13  26
HETATM   26  O   UNK N   1     136.389 145.493 122.242  0.00  0.00    -0.357 OA
HETATM   27  H   UNK N   1     136.637 145.953 123.051  0.00  0.00     0.218 HD
ENDBRANCH  13  26
BRANCH  16  28
HETATM   28  O   UNK N   1     135.154 144.276 120.025  0.00  0.00    -0.357 OA
HETATM   29  H   UNK N   1     135.233 143.560 120.664  0.00  0.00     0.218 HD
ENDBRANCH  16  28
BRANCH  15  30
HETATM   30  C   UNK N   1     135.604 145.136 117.363  0.00  0.00     0.013 C 
HETATM   31  C   UNK N   1     134.258 145.825 117.104  0.00  0.00     0.015 C 
HETATM   32  C   UNK N   1     136.496 145.183 116.117  0.00  0.00     0.015 C 
ENDBRANCH  15  30
TORSDOF 7
ENDMDL
MODEL 2
REMARK VINA RESULT:      -6.8     57.026     60.387
REMARK  7 active torsions:
REMARK  status: ('A' for Active; 'I' for Inactive)
REMARK    1  A    between atoms: O_2  and  C_19 
REMARK    2  A    between atoms: O_3  and  C_22 
REMARK       I    between atoms: N_4  and  C_18 
REMARK    3  A    between atoms: N_4  and  C_23 
REMARK    4  A    between atoms: N_5  and  C_25 
REMARK    5  A    between atoms: C_7  and  C_18 
REMARK    6  A    between atoms: C_21  and  C_24 
REMARK    7  A    between atoms: C_23  and  C_25 
ROOT
HETATM    1  C   UNK N   1     131.776 167.240 175.862  0.00  0.00     0.016 C 
HETATM    2  C   UNK N   1     132.279 166.242 177.010  0.00  0.00     0.075 C 
HETATM    3  C   UNK N   1     132.676 167.298 174.564  0.00  0.00    -0.043 C 
HETATM    4  C   UNK N   1     132.331 164.849 176.277  0.00  0.00     0.025 C 
HETATM    5  C   UNK N   1     132.825 165.854 174.017  0.00  0.00     0.009 C 
HETATM    6  C   UNK N   1     131.398 168.605 176.445  0.00  0.00     0.011 C 
HETATM    7  C   UNK N   1     133.296 164.861 175.070  0.00  0.00     0.002 C 
HETATM    8  C   UNK N   1     131.272 166.240 178.196  0.00  0.00     0.003 A 
HETATM    9  C   UNK N   1     130.208 168.444 177.387  0.00  0.00     0.040 C 
HETATM   10  C   UNK N   1     134.056 167.948 174.812  0.00  0.00     0.015 C 
HETATM   11  C   UNK N   1     131.980 168.110 173.437  0.00  0.00     0.015 C 
HETATM   12  C   UNK N   1     130.308 167.276 178.340  0.00  0.00    -0.047 A 
HETATM   13  C   UNK N   1     131.334 165.231 179.204  0.00  0.00     0.107 A 
HETATM   14  C   UNK N   1     129.406 167.256 179.408  0.00  0.00     0.018 A 
HETATM   15  C   UNK N   1     129.438 166.244 180.376  0.00  0.00    -0.018 A 
HETATM   16  C   UNK N   1     130.405 165.228 180.278  0.00  0.00     0.106 A 
ENDROOT
BRANCH   2  17
HETATM   17  C   UNK N   1     133.617 166.613 177.712  0.00  0.00     0.231 C 
HETATM   18  O   UNK N   1     134.548 165.826 177.650  0.00  0.00    -0.272 OA
HETATM   19  N   UNK N   1     133.815 167.827 178.321  0.00  0.00    -0.358 N 
HETATM   20  H   UNK N   1     133.064 168.521 178.372  0.00  0.00     0.162 HD
BRANCH  19  21
HETATM   21  C   UNK N   1     135.090 168.212 178.904  0.00  0.00     0.152 C 
BRANCH  21  22
HETATM   22  C   UNK N   1     135.852 169.212 178.009  0.00  0.00     0.290 C 
BRANCH  22  23
HETATM   23  N   UNK N   1     137.307 169.154 178.282  0.00  0.00     0.081 N 
HETATM   24  C   UNK N   1     137.949 170.463 178.069  0.00  0.00     0.309 C 
HETATM   25  C   UNK N   1     137.572 168.692 179.654  0.00  0.00     0.309 C 
ENDBRANCH  22  23
ENDBRANCH  21  22
ENDBRANCH  19  21
ENDBRANCH   2  17
BRANCH  13  26
HETATM   26  O   UNK N   1     132.299 164.287 179.129  0.00  0.00    -0.357 OA
HETATM   27  H   UNK N   1     133.218 164.440 178.886  0.00  0.00     0.218 HD
ENDBRANCH  13  26
BRANCH  16  28
HETATM   28  O   UNK N   1     130.424 164.262 181.229  0.00  0.00    -0.357 OA
HETATM   29  H   UNK N   1     130.891 163.422 181.163  0.00  0.00     0.218 HD
ENDBRANCH  16  28
BRANCH  15  30
HETATM   30  C   UNK N   1     128.448 166.270 181.537  0.00  0.00     0.013 C 
HETATM   31  C   UNK N   1     129.044 167.008 182.743  0.00  0.00     0.015 C 
HETATM   32  C   UNK N   1     127.112 166.891 181.116  0.00  0.00     0.015 C 
ENDBRANCH  15  30
TORSDOF 7
ENDMDL
MODEL 3
REMARK VINA RESULT:      -6.7     44.040     45.994
REMARK  7 active torsions:
REMARK  status: ('A' for Active; 'I' for Inactive)
REMARK    1  A    between atoms: O_2  and  C_19 
REMARK    2  A    between atoms: O_3  and  C_22 
REMARK       I    between atoms: N_4  and  C_18 
REMARK    3  A    between atoms: N_4  and  C_23 
REMARK    4  A    between atoms: N_5  and  C_25 
REMARK    5  A    between atoms: C_7  and  C_18 
REMARK    6  A    between atoms: C_21  and  C_24 
REMARK    7  A    between atoms: C_23  and  C_25 
ROOT
HETATM    1  C   UNK N   1     158.693 120.976 153.242  0.00  0.00     0.016 C 
HETATM    2  C   UNK N   1     157.987 122.379 153.558  0.00  0.00     0.075 C 
HETATM    3  C   UNK N   1     157.849 119.689 153.606  0.00  0.00    -0.043 C 
HETATM    4  C   UNK N   1     156.653 122.304 152.725  0.00  0.00     0.025 C 
HETATM    5  C   UNK N   1     156.478 119.793 152.888  0.00  0.00     0.009 C 
HETATM    6  C   UNK N   1     160.139 120.960 153.745  0.00  0.00     0.011 C 
HETATM    7  C   UNK N   1     155.765 121.113 153.150  0.00  0.00     0.002 C 
HETATM    8  C   UNK N   1     158.899 123.552 153.097  0.00  0.00     0.003 A 
HETATM    9  C   UNK N   1     160.954 122.001 152.982  0.00  0.00     0.040 C 
HETATM   10  C   UNK N   1     157.670 119.491 155.128  0.00  0.00     0.015 C 
HETATM   11  C   UNK N   1     158.523 118.404 153.050  0.00  0.00     0.015 C 
HETATM   12  C   UNK N   1     160.280 123.343 152.824  0.00  0.00    -0.047 A 
HETATM   13  C   UNK N   1     158.385 124.880 152.998  0.00  0.00     0.107 A 
HETATM   14  C   UNK N   1     161.083 124.406 152.404  0.00  0.00     0.018 A 
HETATM   15  C   UNK N   1     160.571 125.703 152.267  0.00  0.00    -0.018 A 
HETATM   16  C   UNK N   1     159.219 125.944 152.566  0.00  0.00     0.106 A 
ENDROOT
BRANCH   2  17
HETATM   17  C   UNK N   1     157.752 122.712 155.060  0.00  0.00     0.231 C 
HETATM   18  O   UNK N   1     158.680 122.571 155.842  0.00  0.00    -0.272 OA
HETATM   19  N   UNK N   1     156.573 123.240 155.520  0.00  0.00    -0.358 N 
HETATM   20  H   UNK N   1     155.780 123.393 154.888  0.00  0.00     0.162 HD
BRANCH  19  21
HETATM   21  C   UNK N   1     156.376 123.631 156.906  0.00  0.00     0.152 C 
BRANCH  21  22
HETATM   22  C   UNK N   1     156.355 125.165 157.072  0.00  0.00     0.290 C 
BRANCH  22  23
HETATM   23  N   UNK N   1     157.657 125.752 156.680  0.00  0.00     0.081 N 
HETATM   24  C   UNK N   1     157.507 127.144 156.222  0.00  0.00     0.309 C 
HETATM   25  C   UNK N   1     158.619 125.701 157.794  0.00  0.00     0.309 C 
ENDBRANCH  22  23
ENDBRANCH  21  22
ENDBRANCH  19  21
ENDBRANCH   2  17
BRANCH  13  26
HETATM   26  O   UNK N   1     157.097 125.112 153.337  0.00  0.00    -0.357 OA
HETATM   27  H   UNK N   1     156.792 125.756 153.984  0.00  0.00     0.218 HD
ENDBRANCH  13  26
BRANCH  16  28
HETATM   28  O   UNK N   1     158.745 127.207 152.433  0.00  0.00    -0.357 OA
HETATM   29  H   UNK N   1     159.032 127.969 152.948  0.00  0.00     0.218 HD
ENDBRANCH  16  28
BRANCH  15  30
HETATM   30  C   UNK N   1     161.488 126.840 151.825  0.00  0.00     0.013 C 
HETATM   31  C   UNK N   1     162.036 127.600 153.039  0.00  0.00     0.015 C 
HETATM   32  C   UNK N   1     162.626 126.324 150.937  0.00  0.00     0.015 C 
ENDBRANCH  15  30
TORSDOF 7
ENDMDL
MODEL 4
REMARK VINA RESULT:      -6.7     35.222     38.385
REMARK  7 active torsions:
REMARK  status: ('A' for Active; 'I' for Inactive)
REMARK    1  A    between atoms: O_2  and  C_19 
REMARK    2  A    between atoms: O_3  and  C_22 
REMARK       I    between atoms: N_4  and  C_18 
REMARK    3  A    between atoms: N_4  and  C_23 
REMARK    4  A    between atoms: N_5  and  C_25 
REMARK    5  A    between atoms: C_7  and  C_18 
REMARK    6  A    between atoms: C_21  and  C_24 
REMARK    7  A    between atoms: C_23  and  C_25 
ROOT
HETATM    1  C   UNK N   1     151.744 157.498 154.022  0.00  0.00     0.016 C 
HETATM    2  C   UNK N   1     151.256 158.973 154.416  0.00  0.00     0.075 C 
HETATM    3  C   UNK N   1     152.529 157.380 152.655  0.00  0.00    -0.043 C 
HETATM    4  C   UNK N   1     152.597 159.798 154.442  0.00  0.00     0.025 C 
HETATM    5  C   UNK N   1     153.726 158.365 152.701  0.00  0.00     0.009 C 
HETATM    6  C   UNK N   1     150.618 156.476 154.207  0.00  0.00     0.011 C 
HETATM    7  C   UNK N   1     153.319 159.784 153.077  0.00  0.00     0.002 C 
HETATM    8  C   UNK N   1     150.554 158.951 155.804  0.00  0.00     0.003 A 
HETATM    9  C   UNK N   1     150.244 156.395 155.685  0.00  0.00     0.040 C 
HETATM   10  C   UNK N   1     151.639 157.638 151.419  0.00  0.00     0.015 C 
HETATM   11  C   UNK N   1     153.150 155.965 152.488  0.00  0.00     0.015 C 
HETATM   12  C   UNK N   1     150.102 157.730 156.378  0.00  0.00    -0.047 A 
HETATM   13  C   UNK N   1     150.292 160.166 156.507  0.00  0.00     0.107 A 
HETATM   14  C   UNK N   1     149.480 157.728 157.629  0.00  0.00     0.018 A 
HETATM   15  C   UNK N   1     149.258 158.914 158.340  0.00  0.00    -0.018 A 
HETATM   16  C   UNK N   1     149.662 160.139 157.779  0.00  0.00     0.106 A 
ENDROOT
BRANCH   2  17
HETATM   17  C   UNK N   1     150.166 159.606 153.503  0.00  0.00     0.231 C 
HETATM   18  O   UNK N   1     149.163 158.956 153.253  0.00  0.00    -0.272 OA
HETATM   19  N   UNK N   1     150.251 160.896 153.045  0.00  0.00    -0.358 N 
HETATM   20  H   UNK N   1     151.067 161.479 153.254  0.00  0.00     0.162 HD
BRANCH  19  21
HETATM   21  C   UNK N   1     149.197 161.521 152.263  0.00  0.00     0.152 C 
BRANCH  21  22
HETATM   22  C   UNK N   1     148.486 162.642 153.049  0.00  0.00     0.290 C 
BRANCH  22  23
HETATM   23  N   UNK N   1     147.127 162.216 153.456  0.00  0.00     0.081 N 
HETATM   24  C   UNK N   1     146.557 161.246 152.505  0.00  0.00     0.309 C 
HETATM   25  C   UNK N   1     147.137 161.633 154.808  0.00  0.00     0.309 C 
ENDBRANCH  22  23
ENDBRANCH  21  22
ENDBRANCH  19  21
ENDBRANCH   2  17
BRANCH  13  26
HETATM   26  O   UNK N   1     150.638 161.341 155.937  0.00  0.00    -0.357 OA
HETATM   27  H   UNK N   1     151.518 161.579 155.627  0.00  0.00     0.218 HD
ENDBRANCH  13  26
BRANCH  16  28
HETATM   28  O   UNK N   1     149.431 161.276 158.480  0.00  0.00    -0.357 OA
HETATM   29  H   UNK N   1     148.676 161.434 159.056  0.00  0.00     0.218 HD
ENDBRANCH  16  28
BRANCH  15  30
HETATM   30  C   UNK N   1     148.557 158.870 159.695  0.00  0.00     0.013 C 
HETATM   31  C   UNK N   1     147.141 158.297 159.557  0.00  0.00     0.015 C 
HETATM   32  C   UNK N   1     149.376 158.075 160.719  0.00  0.00     0.015 C 
ENDBRANCH  15  30
TORSDOF 7
ENDMDL
MODEL 5
REMARK VINA RESULT:      -6.5     58.281     61.613
REMARK  7 active torsions:
REMARK  status: ('A' for Active; 'I' for Inactive)
REMARK    1  A    between atoms: O_2  and  C_19 
REMARK    2  A    between atoms: O_3  and  C_22 
REMARK       I    between atoms: N_4  and  C_18 
REMARK    3  A    between atoms: N_4  and  C_23 
REMARK    4  A    between atoms: N_5  and  C_25 
REMARK    5  A    between atoms: C_7  and  C_18 
REMARK    6  A    between atoms: C_21  and  C_24 
REMARK    7  A    between atoms: C_23  and  C_25 
ROOT
HETATM    1  C   UNK N   1     133.332 168.174 177.152  0.00  0.00     0.016 C 
HETATM    2  C   UNK N   1     133.379 167.964 178.740  0.00  0.00     0.075 C 
HETATM    3  C   UNK N   1     132.042 167.617 176.427  0.00  0.00    -0.043 C 
HETATM    4  C   UNK N   1     132.073 168.693 179.235  0.00  0.00     0.025 C 
HETATM    5  C   UNK N   1     130.798 168.249 177.105  0.00  0.00     0.009 C 
HETATM    6  C   UNK N   1     134.659 167.770 176.503  0.00  0.00     0.011 C 
HETATM    7  C   UNK N   1     130.795 168.083 178.619  0.00  0.00     0.002 C 
HETATM    8  C   UNK N   1     134.667 168.609 179.326  0.00  0.00     0.003 A 
HETATM    9  C   UNK N   1     135.768 168.695 176.998  0.00  0.00     0.040 C 
HETATM   10  C   UNK N   1     131.960 166.074 176.433  0.00  0.00     0.015 C 
HETATM   11  C   UNK N   1     131.995 168.075 174.943  0.00  0.00     0.015 C 
HETATM   12  C   UNK N   1     135.763 168.951 178.486  0.00  0.00    -0.047 A 
HETATM   13  C   UNK N   1     134.804 168.816 180.733  0.00  0.00     0.107 A 
HETATM   14  C   UNK N   1     136.911 169.536 179.029  0.00  0.00     0.018 A 
HETATM   15  C   UNK N   1     137.031 169.777 180.403  0.00  0.00    -0.018 A 
HETATM   16  C   UNK N   1     135.977 169.416 181.261  0.00  0.00     0.106 A 
ENDROOT
BRANCH   2  17
HETATM   17  C   UNK N   1     133.486 166.495 179.240  0.00  0.00     0.231 C 
HETATM   18  O   UNK N   1     134.409 165.805 178.835  0.00  0.00    -0.272 OA
HETATM   19  N   UNK N   1     132.636 165.976 180.184  0.00  0.00    -0.358 N 
HETATM   20  H   UNK N   1     131.864 166.533 180.563  0.00  0.00     0.162 HD
BRANCH  19  21
HETATM   21  C   UNK N   1     132.783 164.631 180.717  0.00  0.00     0.152 C 
BRANCH  21  22
HETATM   22  C   UNK N   1     131.670 163.689 180.214  0.00  0.00     0.290 C 
BRANCH  22  23
HETATM   23  N   UNK N   1     130.429 164.447 179.933  0.00  0.00     0.081 N 
HETATM   24  C   UNK N   1     129.793 164.000 178.681  0.00  0.00     0.309 C 
HETATM   25  C   UNK N   1     129.470 164.327 181.043  0.00  0.00     0.309 C 
ENDBRANCH  22  23
ENDBRANCH  21  22
ENDBRANCH  19  21
ENDBRANCH   2  17
BRANCH  13  26
HETATM   26  O   UNK N   1     133.806 168.419 181.554  0.00  0.00    -0.357 OA
HETATM   27  H   UNK N   1     133.652 167.518 181.857  0.00  0.00     0.218 HD
ENDBRANCH  13  26
BRANCH  16  28
HETATM   28  O   UNK N   1     136.116 169.652 182.589  0.00  0.00    -0.357 OA
HETATM   29  H   UNK N   1     135.748 169.109 183.294  0.00  0.00     0.218 HD
ENDBRANCH  16  28
BRANCH  15  30
HETATM   30  C   UNK N   1     138.309 170.400 180.958  0.00  0.00     0.013 C 
HETATM   31  C   UNK N   1     139.463 169.390 180.932  0.00  0.00     0.015 C 
HETATM   32  C   UNK N   1     138.680 171.679 180.198  0.00  0.00     0.015 C 
ENDBRANCH  15  30
TORSDOF 7
ENDMDL
MODEL 6
REMARK VINA RESULT:      -6.4     44.121     46.154
REMARK  7 active torsions:
REMARK  status: ('A' for Active; 'I' for Inactive)
REMARK    1  A    between atoms: O_2  and  C_19 
REMARK    2  A    between atoms: O_3  and  C_22 
REMARK       I    between atoms: N_4  and  C_18 
REMARK    3  A    between atoms: N_4  and  C_23 
REMARK    4  A    between atoms: N_5  and  C_25 
REMARK    5  A    between atoms: C_7  and  C_18 
REMARK    6  A    between atoms: C_21  and  C_24 
REMARK    7  A    between atoms: C_23  and  C_25 
ROOT
HETATM    1  C   UNK N   1     159.804 127.443 158.068  0.00  0.00     0.016 C 
HETATM    2  C   UNK N   1     159.728 128.019 156.574  0.00  0.00     0.075 C 
HETATM    3  C   UNK N   1     160.153 128.500 159.191  0.00  0.00    -0.043 C 
HETATM    4  C   UNK N   1     158.629 129.142 156.679  0.00  0.00     0.025 C 
HETATM    5  C   UNK N   1     159.128 129.660 159.096  0.00  0.00     0.009 C 
HETATM    6  C   UNK N   1     160.626 126.152 158.121  0.00  0.00     0.011 C 
HETATM    7  C   UNK N   1     159.013 130.242 157.693  0.00  0.00     0.002 C 
HETATM    8  C   UNK N   1     159.318 126.890 155.586  0.00  0.00     0.003 A 
HETATM    9  C   UNK N   1     159.923 125.069 157.307  0.00  0.00     0.040 C 
HETATM   10  C   UNK N   1     161.604 129.025 159.100  0.00  0.00     0.015 C 
HETATM   11  C   UNK N   1     159.973 127.889 160.608  0.00  0.00     0.015 C 
HETATM   12  C   UNK N   1     159.409 125.520 155.960  0.00  0.00    -0.047 A 
HETATM   13  C   UNK N   1     158.901 127.201 154.256  0.00  0.00     0.107 A 
HETATM   14  C   UNK N   1     159.031 124.518 155.062  0.00  0.00     0.018 A 
HETATM   15  C   UNK N   1     158.582 124.822 153.771  0.00  0.00    -0.018 A 
HETATM   16  C   UNK N   1     158.517 126.166 153.363  0.00  0.00     0.106 A 
ENDROOT
BRANCH   2  17
HETATM   17  C   UNK N   1     161.065 128.528 155.961  0.00  0.00     0.231 C 
HETATM   18  O   UNK N   1     161.198 129.725 155.760  0.00  0.00    -0.272 OA
HETATM   19  N   UNK N   1     162.127 127.694 155.721  0.00  0.00    -0.358 N 
HETATM   20  H   UNK N   1     162.060 126.687 155.899  0.00  0.00     0.162 HD
BRANCH  19  21
HETATM   21  C   UNK N   1     163.407 128.176 155.227  0.00  0.00     0.152 C 
BRANCH  21  22
HETATM   22  C   UNK N   1     163.400 128.358 153.696  0.00  0.00     0.290 C 
BRANCH  22  23
HETATM   23  N   UNK N   1     163.150 127.066 153.016  0.00  0.00     0.081 N 
HETATM   24  C   UNK N   1     161.963 127.133 152.145  0.00  0.00     0.309 C 
HETATM   25  C   UNK N   1     164.319 126.647 152.225  0.00  0.00     0.309 C 
ENDBRANCH  22  23
ENDBRANCH  21  22
ENDBRANCH  19  21
ENDBRANCH   2  17
BRANCH  13  26
HETATM   26  O   UNK N   1     158.891 128.492 153.857  0.00  0.00    -0.357 OA
HETATM   27  H   UNK N   1     158.107 129.039 153.741  0.00  0.00     0.218 HD
ENDBRANCH  13  26
BRANCH  16  28
HETATM   28  O   UNK N   1     158.087 126.439 152.107  0.00  0.00    -0.357 OA
HETATM   29  H   UNK N   1     157.196 126.283 151.775  0.00  0.00     0.218 HD
ENDBRANCH  16  28
BRANCH  15  30
HETATM   30  C   UNK N   1     158.196 123.697 152.814  0.00  0.00     0.013 C 
HETATM   31  C   UNK N   1     159.160 122.512 152.953  0.00  0.00     0.015 C 
HETATM   32  C   UNK N   1     156.744 123.256 153.031  0.00  0.00     0.015 C 
ENDBRANCH  15  30
TORSDOF 7
ENDMDL
MODEL 7
REMARK VINA RESULT:      -6.2     43.757     46.464
REMARK  7 active torsions:
REMARK  status: ('A' for Active; 'I' for Inactive)
REMARK    1  A    between atoms: O_2  and  C_19 
REMARK    2  A    between atoms: O_3  and  C_22 
REMARK       I    between atoms: N_4  and  C_18 
REMARK    3  A    between atoms: N_4  and  C_23 
REMARK    4  A    between atoms: N_5  and  C_25 
REMARK    5  A    between atoms: C_7  and  C_18 
REMARK    6  A    between atoms: C_21  and  C_24 
REMARK    7  A    between atoms: C_23  and  C_25 
ROOT
HETATM    1  C   UNK N   1     159.122 123.456 153.019  0.00  0.00     0.016 C 
HETATM    2  C   UNK N   1     160.385 124.441 153.055  0.00  0.00     0.075 C 
HETATM    3  C   UNK N   1     157.723 124.128 153.323  0.00  0.00    -0.043 C 
HETATM    4  C   UNK N   1     160.019 125.533 151.981  0.00  0.00     0.025 C 
HETATM    5  C   UNK N   1     157.532 125.309 152.337  0.00  0.00     0.009 C 
HETATM    6  C   UNK N   1     159.401 122.170 153.802  0.00  0.00     0.011 C 
HETATM    7  C   UNK N   1     158.709 126.275 152.327  0.00  0.00     0.002 C 
HETATM    8  C   UNK N   1     161.680 123.663 152.681  0.00  0.00     0.003 A 
HETATM    9  C   UNK N   1     160.532 121.399 153.126  0.00  0.00     0.040 C 
HETATM   10  C   UNK N   1     157.579 124.593 154.789  0.00  0.00     0.015 C 
HETATM   11  C   UNK N   1     156.556 123.142 153.036  0.00  0.00     0.015 C 
HETATM   12  C   UNK N   1     161.715 122.241 152.711  0.00  0.00    -0.047 A 
HETATM   13  C   UNK N   1     162.882 124.362 152.358  0.00  0.00     0.107 A 
HETATM   14  C   UNK N   1     162.885 121.559 152.366  0.00  0.00     0.018 A 
HETATM   15  C   UNK N   1     164.054 122.241 152.009  0.00  0.00    -0.018 A 
HETATM   16  C   UNK N   1     164.057 123.647 152.005  0.00  0.00     0.106 A 
ENDROOT
BRANCH   2  17
HETATM   17  C   UNK N   1     160.751 125.046 154.441  0.00  0.00     0.231 C 
HETATM   18  O   UNK N   1     161.025 124.285 155.357  0.00  0.00    -0.272 OA
HETATM   19  N   UNK N   1     160.861 126.397 154.647  0.00  0.00    -0.358 N 
HETATM   20  H   UNK N   1     160.660 127.065 153.896  0.00  0.00     0.162 HD
BRANCH  19  21
HETATM   21  C   UNK N   1     161.284 126.965 155.917  0.00  0.00     0.152 C 
BRANCH  21  22
HETATM   22  C   UNK N   1     160.085 127.462 156.752  0.00  0.00     0.290 C 
BRANCH  22  23
HETATM   23  N   UNK N   1     159.559 128.735 156.207  0.00  0.00     0.081 N 
HETATM   24  C   UNK N   1     158.174 128.587 155.728  0.00  0.00     0.309 C 
HETATM   25  C   UNK N   1     159.622 129.809 157.211  0.00  0.00     0.309 C 
ENDBRANCH  22  23
ENDBRANCH  21  22
ENDBRANCH  19  21
ENDBRANCH   2  17
BRANCH  13  26
HETATM   26  O   UNK N   1     162.889 125.713 152.407  0.00  0.00    -0.357 OA
HETATM   27  H   UNK N   1     163.647 126.279 152.228  0.00  0.00     0.218 HD
ENDBRANCH  13  26
BRANCH  16  28
HETATM   28  O   UNK N   1     165.201 124.289 151.664  0.00  0.00    -0.357 OA
HETATM   29  H   UNK N   1     165.567 124.344 150.775  0.00  0.00     0.218 HD
ENDBRANCH  16  28
BRANCH  15  30
HETATM   30  C   UNK N   1     165.316 121.458 151.657  0.00  0.00     0.013 C 
HETATM   31  C   UNK N   1     166.159 121.193 152.911  0.00  0.00     0.015 C 
HETATM   32  C   UNK N   1     164.975 120.149 150.936  0.00  0.00     0.015 C 
ENDBRANCH  15  30
TORSDOF 7
ENDMDL
MODEL 8
REMARK VINA RESULT:      -6.1     51.653     53.682
REMARK  7 active torsions:
REMARK  status: ('A' for Active; 'I' for Inactive)
REMARK    1  A    between atoms: O_2  and  C_19 
REMARK    2  A    between atoms: O_3  and  C_22 
REMARK       I    between atoms: N_4  and  C_18 
REMARK    3  A    between atoms: N_4  and  C_23 
REMARK    4  A    between atoms: N_5  and  C_25 
REMARK    5  A    between atoms: C_7  and  C_18 
REMARK    6  A    between atoms: C_21  and  C_24 
REMARK    7  A    between atoms: C_23  and  C_25 
ROOT
HETATM    1  C   UNK N   1     162.687 134.632 164.953  0.00  0.00     0.016 C 
HETATM    2  C   UNK N   1     162.575 133.551 166.130  0.00  0.00     0.075 C 
HETATM    3  C   UNK N   1     164.147 135.151 164.638  0.00  0.00    -0.043 C 
HETATM    4  C   UNK N   1     163.512 132.386 165.635  0.00  0.00     0.025 C 
HETATM    5  C   UNK N   1     165.042 133.919 164.344  0.00  0.00     0.009 C 
HETATM    6  C   UNK N   1     161.634 135.733 165.113  0.00  0.00     0.011 C 
HETATM    7  C   UNK N   1     164.970 132.855 165.431  0.00  0.00     0.002 C 
HETATM    8  C   UNK N   1     161.099 133.086 166.290  0.00  0.00     0.003 A 
HETATM    9  C   UNK N   1     160.240 135.126 164.971  0.00  0.00     0.040 C 
HETATM   10  C   UNK N   1     164.740 136.018 165.771  0.00  0.00     0.015 C 
HETATM   11  C   UNK N   1     164.167 136.009 163.342  0.00  0.00     0.015 C 
HETATM   12  C   UNK N   1     160.029 133.837 165.728  0.00  0.00    -0.047 A 
HETATM   13  C   UNK N   1     160.780 131.927 167.061  0.00  0.00     0.107 A 
HETATM   14  C   UNK N   1     158.710 133.401 165.876  0.00  0.00     0.018 A 
HETATM   15  C   UNK N   1     158.396 132.242 166.597  0.00  0.00    -0.018 A 
HETATM   16  C   UNK N   1     159.432 131.501 167.194  0.00  0.00     0.106 A 
ENDROOT
BRANCH   2  17
HETATM   17  C   UNK N   1     162.924 134.049 167.562  0.00  0.00     0.231 C 
HETATM   18  O   UNK N   1     162.321 135.013 168.008  0.00  0.00    -0.272 OA
HETATM   19  N   UNK N   1     163.817 133.394 168.371  0.00  0.00    -0.358 N 
HETATM   20  H   UNK N   1     164.325 132.569 168.038  0.00  0.00     0.162 HD
BRANCH  19  21
HETATM   21  C   UNK N   1     164.084 133.806 169.739  0.00  0.00     0.152 C 
BRANCH  21  22
HETATM   22  C   UNK N   1     165.326 134.716 169.834  0.00  0.00     0.290 C 
BRANCH  22  23
HETATM   23  N   UNK N   1     164.973 136.025 170.431  0.00  0.00     0.081 N 
HETATM   24  C   UNK N   1     164.883 137.080 169.407  0.00  0.00     0.309 C 
HETATM   25  C   UNK N   1     163.701 135.945 171.169  0.00  0.00     0.309 C 
ENDBRANCH  22  23
ENDBRANCH  21  22
ENDBRANCH  19  21
ENDBRANCH   2  17
BRANCH  13  26
HETATM   26  O   UNK N   1     161.777 131.251 167.674  0.00  0.00    -0.357 OA
HETATM   27  H   UNK N   1     162.250 130.495 167.311  0.00  0.00     0.218 HD
ENDBRANCH  13  26
BRANCH  16  28
HETATM   28  O   UNK N   1     159.107 130.387 167.894  0.00  0.00    -0.357 OA
HETATM   29  H   UNK N   1     159.632 129.998 168.602  0.00  0.00     0.218 HD
ENDBRANCH  16  28
BRANCH  15  30
HETATM   30  C   UNK N   1     156.940 131.812 166.752  0.00  0.00     0.013 C 
HETATM   31  C   UNK N   1     155.997 133.004 166.551  0.00  0.00     0.015 C 
HETATM   32  C   UNK N   1     156.594 130.667 165.793  0.00  0.00     0.015 C 
ENDBRANCH  15  30
TORSDOF 7
ENDMDL
MODEL 9
REMARK VINA RESULT:      -6.1     35.309     38.424
REMARK  7 active torsions:
REMARK  status: ('A' for Active; 'I' for Inactive)
REMARK    1  A    between atoms: O_2  and  C_19 
REMARK    2  A    between atoms: O_3  and  C_22 
REMARK       I    between atoms: N_4  and  C_18 
REMARK    3  A    between atoms: N_4  and  C_23 
REMARK    4  A    between atoms: N_5  and  C_25 
REMARK    5  A    between atoms: C_7  and  C_18 
REMARK    6  A    between atoms: C_21  and  C_24 
REMARK    7  A    between atoms: C_23  and  C_25 
ROOT
HETATM    1  C   UNK N   1     148.688 161.851 154.597  0.00  0.00     0.016 C 
HETATM    2  C   UNK N   1     149.855 160.966 155.249  0.00  0.00     0.075 C 
HETATM    3  C   UNK N   1     147.826 162.701 155.614  0.00  0.00    -0.043 C 
HETATM    4  C   UNK N   1     150.732 162.033 156.006  0.00  0.00     0.025 C 
HETATM    5  C   UNK N   1     148.793 163.585 156.443  0.00  0.00     0.009 C 
HETATM    6  C   UNK N   1     147.874 161.034 153.590  0.00  0.00     0.011 C 
HETATM    7  C   UNK N   1     149.927 162.794 157.082  0.00  0.00     0.002 C 
HETATM    8  C   UNK N   1     150.656 160.234 154.135  0.00  0.00     0.003 A 
HETATM    9  C   UNK N   1     148.770 160.628 152.423  0.00  0.00     0.040 C 
HETATM   10  C   UNK N   1     146.937 161.831 156.531  0.00  0.00     0.015 C 
HETATM   11  C   UNK N   1     146.888 163.686 154.863  0.00  0.00     0.015 C 
HETATM   12  C   UNK N   1     150.129 160.101 152.820  0.00  0.00    -0.047 A 
HETATM   13  C   UNK N   1     151.914 159.622 154.423  0.00  0.00     0.107 A 
HETATM   14  C   UNK N   1     150.865 159.445 151.829  0.00  0.00     0.018 A 
HETATM   15  C   UNK N   1     152.118 158.880 152.099  0.00  0.00    -0.018 A 
HETATM   16  C   UNK N   1     152.646 158.965 153.400  0.00  0.00     0.106 A 
ENDROOT
BRANCH   2  17
HETATM   17  C   UNK N   1     149.403 159.789 156.161  0.00  0.00     0.231 C 
HETATM   18  O   UNK N   1     148.634 158.958 155.704  0.00  0.00    -0.272 OA
HETATM   19  N   UNK N   1     149.903 159.604 157.425  0.00  0.00    -0.358 N 
HETATM   20  H   UNK N   1     150.568 160.269 157.832  0.00  0.00     0.162 HD
BRANCH  19  21
HETATM   21  C   UNK N   1     149.549 158.461 158.249  0.00  0.00     0.152 C 
BRANCH  21  22
HETATM   22  C   UNK N   1     148.927 158.892 159.593  0.00  0.00     0.290 C 
BRANCH  22  23
HETATM   23  N   UNK N   1     147.509 158.472 159.673  0.00  0.00     0.081 N 
HETATM   24  C   UNK N   1     147.268 157.593 160.830  0.00  0.00     0.309 C 
HETATM   25  C   UNK N   1     146.613 159.639 159.745  0.00  0.00     0.309 C 
ENDBRANCH  22  23
ENDBRANCH  21  22
ENDBRANCH  19  21
ENDBRANCH   2  17
BRANCH  13  26
HETATM   26  O   UNK N   1     152.389 159.665 155.688  0.00  0.00    -0.357 OA
HETATM   27  H   UNK N   1     153.318 159.648 155.941  0.00  0.00     0.218 HD
ENDBRANCH  13  26
BRANCH  16  28
HETATM   28  O   UNK N   1     153.856 158.405 153.642  0.00  0.00    -0.357 OA
HETATM   29  H   UNK N   1     154.038 157.735 154.310  0.00  0.00     0.218 HD
ENDBRANCH  16  28
BRANCH  15  30
HETATM   30  C   UNK N   1     152.881 158.156 150.994  0.00  0.00     0.013 C 
HETATM   31  C   UNK N   1     152.203 156.824 150.648  0.00  0.00     0.015 C 
HETATM   32  C   UNK N   1     153.028 159.039 149.749  0.00  0.00     0.015 C 
ENDBRANCH  15  30
TORSDOF 7
ENDMDL
