MODEL 1
REMARK VINA RESULT:      -8.0      0.000      0.000
REMARK  5 active torsions:
REMARK  status: ('A' for Active; 'I' for Inactive)
REMARK    1  A    between atoms: O_2  and  C_18 
REMARK    2  A    between atoms: O_3  and  C_22 
REMARK       I    between atoms: N_4  and  C_14 
REMARK    3  A    between atoms: N_4  and  C_20 
REMARK    4  A    between atoms: C_6  and  C_14 
REMARK    5  A    between atoms: C_21  and  C_25 
ROOT
HETATM    1  C   UNK N   1     131.712 167.307 175.885  0.00  0.00     0.016 C 
HETATM    2  C   UNK N   1     132.255 166.288 176.993  0.00  0.00     0.075 C 
HETATM    3  C   UNK N   1     132.514 167.321 174.522  0.00  0.00    -0.043 C 
HETATM    4  C   UNK N   1     132.173 164.894 176.263  0.00  0.00     0.025 C 
HETATM    5  C   UNK N   1     132.550 165.871 173.969  0.00  0.00     0.009 C 
HETATM    6  C   UNK N   1     131.439 168.687 176.490  0.00  0.00     0.011 C 
HETATM    7  C   UNK N   1     133.047 164.855 174.990  0.00  0.00     0.002 C 
HETATM    8  C   UNK N   1     131.357 166.336 178.261  0.00  0.00     0.003 A 
HETATM    9  C   UNK N   1     130.320 168.575 177.524  0.00  0.00     0.040 C 
HETATM   10  C   UNK N   1     131.775 168.167 173.450  0.00  0.00     0.015 C 
HETATM   11  C   UNK N   1     133.940 167.902 174.658  0.00  0.00     0.015 C 
HETATM   12  C   UNK N   1     130.451 167.410 178.475  0.00  0.00    -0.047 A 
HETATM   13  C   UNK N   1     131.465 165.330 179.268  0.00  0.00     0.107 A 
HETATM   14  C   UNK N   1     129.641 167.430 179.615  0.00  0.00     0.018 A 
HETATM   15  C   UNK N   1     129.717 166.425 180.585  0.00  0.00    -0.018 A 
HETATM   16  C   UNK N   1     130.633 165.371 180.419  0.00  0.00     0.106 A 
ENDROOT
BRANCH   2  17
HETATM   17  C   UNK N   1     133.665 166.597 177.570  0.00  0.00     0.231 C 
HETATM   18  O   UNK N   1     134.518 165.724 177.537  0.00  0.00    -0.272 OA
HETATM   19  N   UNK N   1     134.001 167.842 178.038  0.00  0.00    -0.355 N 
HETATM   20  H   UNK N   1     133.299 168.587 178.049  0.00  0.00     0.162 HD
BRANCH  19  21
HETATM   21  C   UNK N   1     135.337 168.190 178.521  0.00  0.00     0.084 C 
HETATM   22  C   UNK N   1     135.169 169.076 179.783  0.00  0.00     0.025 C 
HETATM   23  C   UNK N   1     136.469 169.246 180.564  0.00  0.00     0.002 C 
HETATM   24  C   UNK N   1     137.384 170.383 180.103  0.00  0.00     0.000 C 
HETATM   25  C   UNK N   1     137.533 170.615 178.597  0.00  0.00     0.000 C 
HETATM   26  C   UNK N   1     137.576 169.362 177.722  0.00  0.00     0.002 C 
HETATM   27  C   UNK N   1     136.162 168.842 177.381  0.00  0.00     0.025 C 
ENDBRANCH  19  21
ENDBRANCH   2  17
BRANCH  13  28
HETATM   28  O   UNK N   1     132.379 164.344 179.118  0.00  0.00    -0.357 OA
HETATM   29  H   UNK N   1     132.267 163.548 178.587  0.00  0.00     0.218 HD
ENDBRANCH  13  28
BRANCH  16  30
HETATM   30  O   UNK N   1     130.699 164.415 181.377  0.00  0.00    -0.357 OA
HETATM   31  H   UNK N   1     130.561 163.472 181.236  0.00  0.00     0.218 HD
ENDBRANCH  16  30
BRANCH  15  32
HETATM   32  C   UNK N   1     128.829 166.495 181.825  0.00  0.00     0.013 C 
HETATM   33  C   UNK N   1     129.626 166.996 183.035  0.00  0.00     0.015 C 
HETATM   34  C   UNK N   1     127.596 167.372 181.574  0.00  0.00     0.015 C 
ENDBRANCH  15  32
TORSDOF 5
ENDMDL
MODEL 2
REMARK VINA RESULT:      -8.0     55.740     59.840
REMARK  5 active torsions:
REMARK  status: ('A' for Active; 'I' for Inactive)
REMARK    1  A    between atoms: O_2  and  C_18 
REMARK    2  A    between atoms: O_3  and  C_22 
REMARK       I    between atoms: N_4  and  C_14 
REMARK    3  A    between atoms: N_4  and  C_20 
REMARK    4  A    between atoms: C_6  and  C_14 
REMARK    5  A    between atoms: C_21  and  C_25 
ROOT
HETATM    1  C   UNK N   1     139.673 148.470 121.478  0.00  0.00     0.016 C 
HETATM    2  C   UNK N   1     138.421 147.636 122.023  0.00  0.00     0.075 C 
HETATM    3  C   UNK N   1     140.572 149.151 122.587  0.00  0.00    -0.043 C 
HETATM    4  C   UNK N   1     139.091 146.562 122.961  0.00  0.00     0.025 C 
HETATM    5  C   UNK N   1     141.031 148.050 123.579  0.00  0.00     0.009 C 
HETATM    6  C   UNK N   1     139.264 149.388 120.322  0.00  0.00     0.011 C 
HETATM    7  C   UNK N   1     139.877 147.214 124.120  0.00  0.00     0.002 C 
HETATM    8  C   UNK N   1     137.650 146.981 120.843  0.00  0.00     0.003 A 
HETATM    9  C   UNK N   1     138.797 148.538 119.142  0.00  0.00     0.040 C 
HETATM   10  C   UNK N   1     141.871 149.736 121.969  0.00  0.00     0.015 C 
HETATM   11  C   UNK N   1     139.858 150.307 123.327  0.00  0.00     0.015 C 
HETATM   12  C   UNK N   1     137.858 147.413 119.505  0.00  0.00    -0.047 A 
HETATM   13  C   UNK N   1     136.673 145.968 121.085  0.00  0.00     0.107 A 
HETATM   14  C   UNK N   1     137.165 146.803 118.454  0.00  0.00     0.018 A 
HETATM   15  C   UNK N   1     136.235 145.783 118.684  0.00  0.00    -0.018 A 
HETATM   16  C   UNK N   1     135.980 145.364 120.002  0.00  0.00     0.106 A 
ENDROOT
BRANCH   2  17
HETATM   17  C   UNK N   1     137.309 148.461 122.732  0.00  0.00     0.231 C 
HETATM   18  O   UNK N   1     136.731 149.332 122.102  0.00  0.00    -0.272 OA
HETATM   19  N   UNK N   1     136.906 148.183 124.014  0.00  0.00    -0.355 N 
HETATM   20  H   UNK N   1     137.370 147.440 124.543  0.00  0.00     0.162 HD
BRANCH  19  21
HETATM   21  C   UNK N   1     135.815 148.889 124.687  0.00  0.00     0.084 C 
HETATM   22  C   UNK N   1     136.435 149.741 125.826  0.00  0.00     0.025 C 
HETATM   23  C   UNK N   1     135.456 150.761 126.401  0.00  0.00     0.002 C 
HETATM   24  C   UNK N   1     134.539 150.256 127.516  0.00  0.00     0.000 C 
HETATM   25  C   UNK N   1     133.953 148.849 127.378  0.00  0.00     0.000 C 
HETATM   26  C   UNK N   1     133.542 148.424 125.967  0.00  0.00     0.002 C 
HETATM   27  C   UNK N   1     134.736 147.878 125.153  0.00  0.00     0.025 C 
ENDBRANCH  19  21
ENDBRANCH   2  17
BRANCH  13  28
HETATM   28  O   UNK N   1     136.406 145.603 122.359  0.00  0.00    -0.357 OA
HETATM   29  H   UNK N   1     136.277 146.202 123.102  0.00  0.00     0.218 HD
ENDBRANCH  13  28
BRANCH  16  30
HETATM   30  O   UNK N   1     135.066 144.383 120.202  0.00  0.00    -0.357 OA
HETATM   31  H   UNK N   1     135.064 143.764 120.941  0.00  0.00     0.218 HD
ENDBRANCH  16  30
BRANCH  15  32
HETATM   32  C   UNK N   1     135.486 145.157 117.510  0.00  0.00     0.013 C 
HETATM   33  C   UNK N   1     134.155 145.881 117.268  0.00  0.00     0.015 C 
HETATM   34  C   UNK N   1     136.349 145.151 116.243  0.00  0.00     0.015 C 
ENDBRANCH  15  32
TORSDOF 5
ENDMDL
MODEL 3
REMARK VINA RESULT:      -7.8     53.368     55.298
REMARK  5 active torsions:
REMARK  status: ('A' for Active; 'I' for Inactive)
REMARK    1  A    between atoms: O_2  and  C_18 
REMARK    2  A    between atoms: O_3  and  C_22 
REMARK       I    between atoms: N_4  and  C_14 
REMARK    3  A    between atoms: N_4  and  C_20 
REMARK    4  A    between atoms: C_6  and  C_14 
REMARK    5  A    between atoms: C_21  and  C_25 
ROOT
HETATM    1  C   UNK N   1     139.857 130.529 135.596  0.00  0.00     0.016 C 
HETATM    2  C   UNK N   1     140.000 131.656 136.722  0.00  0.00     0.075 C 
HETATM    3  C   UNK N   1     139.224 129.162 136.079  0.00  0.00    -0.043 C 
HETATM    4  C   UNK N   1     138.518 131.852 137.219  0.00  0.00     0.025 C 
HETATM    5  C   UNK N   1     137.850 129.470 136.730  0.00  0.00     0.009 C 
HETATM    6  C   UNK N   1     141.147 130.394 134.782  0.00  0.00     0.011 C 
HETATM    7  C   UNK N   1     137.926 130.550 137.803  0.00  0.00     0.002 C 
HETATM    8  C   UNK N   1     140.589 132.960 136.113  0.00  0.00     0.003 A 
HETATM    9  C   UNK N   1     141.407 131.694 134.025  0.00  0.00     0.040 C 
HETATM   10  C   UNK N   1     138.924 128.231 134.872  0.00  0.00     0.015 C 
HETATM   11  C   UNK N   1     140.137 128.374 137.047  0.00  0.00     0.015 C 
HETATM   12  C   UNK N   1     141.227 132.950 134.843  0.00  0.00    -0.047 A 
HETATM   13  C   UNK N   1     140.551 134.186 136.843  0.00  0.00     0.107 A 
HETATM   14  C   UNK N   1     141.739 134.135 134.305  0.00  0.00     0.018 A 
HETATM   15  C   UNK N   1     141.669 135.346 135.002  0.00  0.00    -0.018 A 
HETATM   16  C   UNK N   1     141.078 135.377 136.277  0.00  0.00     0.106 A 
ENDROOT
BRANCH   2  17
HETATM   17  C   UNK N   1     140.998 131.346 137.875  0.00  0.00     0.231 C 
HETATM   18  O   UNK N   1     140.587 131.348 139.024  0.00  0.00    -0.272 OA
HETATM   19  N   UNK N   1     142.300 130.991 137.630  0.00  0.00    -0.355 N 
HETATM   20  H   UNK N   1     142.648 130.964 136.668  0.00  0.00     0.162 HD
BRANCH  19  21
HETATM   21  C   UNK N   1     143.247 130.621 138.683  0.00  0.00     0.084 C 
HETATM   22  C   UNK N   1     144.119 131.867 138.994  0.00  0.00     0.025 C 
HETATM   23  C   UNK N   1     144.927 131.718 140.279  0.00  0.00     0.002 C 
HETATM   24  C   UNK N   1     146.282 131.022 140.141  0.00  0.00     0.000 C 
HETATM   25  C   UNK N   1     146.373 129.809 139.212  0.00  0.00     0.000 C 
HETATM   26  C   UNK N   1     145.165 128.870 139.207  0.00  0.00     0.002 C 
HETATM   27  C   UNK N   1     144.048 129.364 138.261  0.00  0.00     0.025 C 
ENDBRANCH  19  21
ENDBRANCH   2  17
BRANCH  13  28
HETATM   28  O   UNK N   1     140.018 134.195 138.087  0.00  0.00    -0.357 OA
HETATM   29  H   UNK N   1     139.303 134.765 138.389  0.00  0.00     0.218 HD
ENDBRANCH  13  28
BRANCH  16  30
HETATM   30  O   UNK N   1     141.032 136.559 136.939  0.00  0.00    -0.357 OA
HETATM   31  H   UNK N   1     141.316 136.701 137.849  0.00  0.00     0.218 HD
ENDBRANCH  16  30
BRANCH  15  32
HETATM   32  C   UNK N   1     142.257 136.613 134.386  0.00  0.00     0.013 C 
HETATM   33  C   UNK N   1     143.788 136.531 134.336  0.00  0.00     0.015 C 
HETATM   34  C   UNK N   1     141.673 136.874 132.992  0.00  0.00     0.015 C 
ENDBRANCH  15  32
TORSDOF 5
ENDMDL
MODEL 4
REMARK VINA RESULT:      -7.5     41.359     44.232
REMARK  5 active torsions:
REMARK  status: ('A' for Active; 'I' for Inactive)
REMARK    1  A    between atoms: O_2  and  C_18 
REMARK    2  A    between atoms: O_3  and  C_22 
REMARK       I    between atoms: N_4  and  C_14 
REMARK    3  A    between atoms: N_4  and  C_20 
REMARK    4  A    between atoms: C_6  and  C_14 
REMARK    5  A    between atoms: C_21  and  C_25 
ROOT
HETATM    1  C   UNK N   1     133.834 151.957 134.133  0.00  0.00     0.016 C 
HETATM    2  C   UNK N   1     133.947 152.741 135.523  0.00  0.00     0.075 C 
HETATM    3  C   UNK N   1     134.644 152.587 132.929  0.00  0.00    -0.043 C 
HETATM    4  C   UNK N   1     135.497 152.737 135.808  0.00  0.00     0.025 C 
HETATM    5  C   UNK N   1     136.126 152.726 133.366  0.00  0.00     0.009 C 
HETATM    6  C   UNK N   1     132.379 151.599 133.817  0.00  0.00     0.011 C 
HETATM    7  C   UNK N   1     136.292 153.455 134.694  0.00  0.00     0.002 C 
HETATM    8  C   UNK N   1     133.149 151.999 136.631  0.00  0.00     0.003 A 
HETATM    9  C   UNK N   1     131.856 150.629 134.875  0.00  0.00     0.040 C 
HETATM   10  C   UNK N   1     134.649 151.634 131.702  0.00  0.00     0.015 C 
HETATM   11  C   UNK N   1     134.073 153.942 132.451  0.00  0.00     0.015 C 
HETATM   12  C   UNK N   1     132.188 151.005 136.298  0.00  0.00    -0.047 A 
HETATM   13  C   UNK N   1     133.322 152.340 138.007  0.00  0.00     0.107 A 
HETATM   14  C   UNK N   1     131.488 150.338 137.309  0.00  0.00     0.018 A 
HETATM   15  C   UNK N   1     131.685 150.643 138.660  0.00  0.00    -0.018 A 
HETATM   16  C   UNK N   1     132.600 151.650 139.016  0.00  0.00     0.106 A 
ENDROOT
BRANCH   2  17
HETATM   17  C   UNK N   1     133.321 154.164 135.556  0.00  0.00     0.231 C 
HETATM   18  O   UNK N   1     132.160 154.304 135.204  0.00  0.00    -0.272 OA
HETATM   19  N   UNK N   1     134.007 155.247 136.045  0.00  0.00    -0.355 N 
HETATM   20  H   UNK N   1     134.973 155.135 136.363  0.00  0.00     0.162 HD
BRANCH  19  21
HETATM   21  C   UNK N   1     133.426 156.585 136.160  0.00  0.00     0.084 C 
HETATM   22  C   UNK N   1     134.320 157.560 135.348  0.00  0.00     0.025 C 
HETATM   23  C   UNK N   1     133.661 158.918 135.124  0.00  0.00     0.002 C 
HETATM   24  C   UNK N   1     133.853 159.948 136.238  0.00  0.00     0.000 C 
HETATM   25  C   UNK N   1     133.778 159.458 137.686  0.00  0.00     0.000 C 
HETATM   26  C   UNK N   1     132.733 158.381 137.981  0.00  0.00     0.002 C 
HETATM   27  C   UNK N   1     133.251 156.963 137.653  0.00  0.00     0.025 C 
ENDBRANCH  19  21
ENDBRANCH   2  17
BRANCH  13  28
HETATM   28  O   UNK N   1     134.174 153.338 138.334  0.00  0.00    -0.357 OA
HETATM   29  H   UNK N   1     134.539 153.989 137.725  0.00  0.00     0.218 HD
ENDBRANCH  13  28
BRANCH  16  30
HETATM   30  O   UNK N   1     132.765 151.938 140.330  0.00  0.00    -0.357 OA
HETATM   31  H   UNK N   1     132.323 151.490 141.060  0.00  0.00     0.218 HD
ENDBRANCH  16  30
BRANCH  15  32
HETATM   32  C   UNK N   1     130.886 149.904 139.731  0.00  0.00     0.013 C 
HETATM   33  C   UNK N   1     129.405 149.818 139.341  0.00  0.00     0.015 C 
HETATM   34  C   UNK N   1     131.469 148.510 139.993  0.00  0.00     0.015 C 
ENDBRANCH  15  32
TORSDOF 5
ENDMDL
MODEL 5
REMARK VINA RESULT:      -7.4     29.151     32.370
REMARK  5 active torsions:
REMARK  status: ('A' for Active; 'I' for Inactive)
REMARK    1  A    between atoms: O_2  and  C_18 
REMARK    2  A    between atoms: O_3  and  C_22 
REMARK       I    between atoms: N_4  and  C_14 
REMARK    3  A    between atoms: N_4  and  C_20 
REMARK    4  A    between atoms: C_6  and  C_14 
REMARK    5  A    between atoms: C_21  and  C_25 
ROOT
HETATM    1  C   UNK N   1     152.383 157.273 152.995  0.00  0.00     0.016 C 
HETATM    2  C   UNK N   1     150.925 157.815 153.367  0.00  0.00     0.075 C 
HETATM    3  C   UNK N   1     153.585 158.005 153.716  0.00  0.00    -0.043 C 
HETATM    4  C   UNK N   1     150.862 157.621 154.929  0.00  0.00     0.025 C 
HETATM    5  C   UNK N   1     153.343 157.934 155.247  0.00  0.00     0.009 C 
HETATM    6  C   UNK N   1     152.541 157.106 151.480  0.00  0.00     0.011 C 
HETATM    7  C   UNK N   1     151.961 158.426 155.658  0.00  0.00     0.002 C 
HETATM    8  C   UNK N   1     149.834 156.986 152.633  0.00  0.00     0.003 A 
HETATM    9  C   UNK N   1     151.570 156.036 150.985  0.00  0.00     0.040 C 
HETATM   10  C   UNK N   1     154.924 157.260 153.462  0.00  0.00     0.015 C 
HETATM   11  C   UNK N   1     153.781 159.466 153.248  0.00  0.00     0.015 C 
HETATM   12  C   UNK N   1     150.168 156.151 151.531  0.00  0.00    -0.047 A 
HETATM   13  C   UNK N   1     148.461 157.090 153.012  0.00  0.00     0.107 A 
HETATM   14  C   UNK N   1     149.175 155.403 150.891  0.00  0.00     0.018 A 
HETATM   15  C   UNK N   1     147.835 155.473 151.286  0.00  0.00    -0.018 A 
HETATM   16  C   UNK N   1     147.470 156.320 152.347  0.00  0.00     0.106 A 
ENDROOT
BRANCH   2  17
HETATM   17  C   UNK N   1     150.601 159.267 152.916  0.00  0.00     0.231 C 
HETATM   18  O   UNK N   1     150.657 159.540 151.727  0.00  0.00    -0.272 OA
HETATM   19  N   UNK N   1     150.177 160.225 153.802  0.00  0.00    -0.355 N 
HETATM   20  H   UNK N   1     150.105 160.000 154.798  0.00  0.00     0.162 HD
BRANCH  19  21
HETATM   21  C   UNK N   1     149.794 161.580 153.404  0.00  0.00     0.084 C 
HETATM   22  C   UNK N   1     150.982 162.523 153.733  0.00  0.00     0.025 C 
HETATM   23  C   UNK N   1     150.842 163.898 153.086  0.00  0.00     0.002 C 
HETATM   24  C   UNK N   1     150.032 164.930 153.873  0.00  0.00     0.000 C 
HETATM   25  C   UNK N   1     148.765 164.452 154.587  0.00  0.00     0.000 C 
HETATM   26  C   UNK N   1     147.927 163.407 153.847  0.00  0.00     0.002 C 
HETATM   27  C   UNK N   1     148.454 161.973 154.075  0.00  0.00     0.025 C 
ENDBRANCH  19  21
ENDBRANCH   2  17
BRANCH  13  28
HETATM   28  O   UNK N   1     148.116 157.940 154.006  0.00  0.00    -0.357 OA
HETATM   29  H   UNK N   1     148.120 158.902 153.951  0.00  0.00     0.218 HD
ENDBRANCH  13  28
BRANCH  16  30
HETATM   30  O   UNK N   1     146.164 156.382 152.704  0.00  0.00    -0.357 OA
HETATM   31  H   UNK N   1     145.602 157.161 152.634  0.00  0.00     0.218 HD
ENDBRANCH  16  30
BRANCH  15  32
HETATM   32  C   UNK N   1     146.780 154.653 150.547  0.00  0.00     0.013 C 
HETATM   33  C   UNK N   1     145.907 155.558 149.669  0.00  0.00     0.015 C 
HETATM   34  C   UNK N   1     147.427 153.537 149.717  0.00  0.00     0.015 C 
ENDBRANCH  15  32
TORSDOF 5
ENDMDL
MODEL 6
REMARK VINA RESULT:      -7.3     26.798     30.045
REMARK  5 active torsions:
REMARK  status: ('A' for Active; 'I' for Inactive)
REMARK    1  A    between atoms: O_2  and  C_18 
REMARK    2  A    between atoms: O_3  and  C_22 
REMARK       I    between atoms: N_4  and  C_14 
REMARK    3  A    between atoms: N_4  and  C_20 
REMARK    4  A    between atoms: C_6  and  C_14 
REMARK    5  A    between atoms: C_21  and  C_25 
ROOT
HETATM    1  C   UNK N   1     149.503 162.210 155.104  0.00  0.00     0.016 C 
HETATM    2  C   UNK N   1     149.143 160.681 154.801  0.00  0.00     0.075 C 
HETATM    3  C   UNK N   1     149.944 163.067 153.850  0.00  0.00    -0.043 C 
HETATM    4  C   UNK N   1     147.980 160.793 153.744  0.00  0.00     0.025 C 
HETATM    5  C   UNK N   1     148.825 162.964 152.780  0.00  0.00     0.009 C 
HETATM    6  C   UNK N   1     150.421 162.329 156.325  0.00  0.00     0.011 C 
HETATM    7  C   UNK N   1     148.431 161.527 152.461  0.00  0.00     0.002 C 
HETATM    8  C   UNK N   1     148.682 159.963 156.101  0.00  0.00     0.003 A 
HETATM    9  C   UNK N   1     149.681 161.832 157.565  0.00  0.00     0.040 C 
HETATM   10  C   UNK N   1     150.049 164.573 154.214  0.00  0.00     0.015 C 
HETATM   11  C   UNK N   1     151.313 162.641 153.269  0.00  0.00     0.015 C 
HETATM   12  C   UNK N   1     148.935 160.533 157.378  0.00  0.00    -0.047 A 
HETATM   13  C   UNK N   1     148.046 158.687 156.042  0.00  0.00     0.107 A 
HETATM   14  C   UNK N   1     148.502 159.880 158.537  0.00  0.00     0.018 A 
HETATM   15  C   UNK N   1     147.843 158.647 158.480  0.00  0.00    -0.018 A 
HETATM   16  C   UNK N   1     147.615 158.041 157.231  0.00  0.00     0.106 A 
ENDROOT
BRANCH   2  17
HETATM   17  C   UNK N   1     150.321 159.784 154.324  0.00  0.00     0.231 C 
HETATM   18  O   UNK N   1     151.329 159.723 155.010  0.00  0.00    -0.272 OA
HETATM   19  N   UNK N   1     150.227 159.000 153.202  0.00  0.00    -0.355 N 
HETATM   20  H   UNK N   1     149.377 159.028 152.632  0.00  0.00     0.162 HD
BRANCH  19  21
HETATM   21  C   UNK N   1     151.285 158.090 152.763  0.00  0.00     0.084 C 
HETATM   22  C   UNK N   1     151.492 158.304 151.240  0.00  0.00     0.025 C 
HETATM   23  C   UNK N   1     152.769 157.652 150.719  0.00  0.00     0.002 C 
HETATM   24  C   UNK N   1     152.656 156.180 150.319  0.00  0.00     0.000 C 
HETATM   25  C   UNK N   1     151.811 155.261 151.205  0.00  0.00     0.000 C 
HETATM   26  C   UNK N   1     151.895 155.512 152.711  0.00  0.00     0.002 C 
HETATM   27  C   UNK N   1     150.938 156.635 153.167  0.00  0.00     0.025 C 
ENDBRANCH  19  21
ENDBRANCH   2  17
BRANCH  13  28
HETATM   28  O   UNK N   1     147.870 158.095 154.838  0.00  0.00    -0.357 OA
HETATM   29  H   UNK N   1     147.638 157.171 154.693  0.00  0.00     0.218 HD
ENDBRANCH  13  28
BRANCH  16  30
HETATM   30  O   UNK N   1     146.987 156.841 157.201  0.00  0.00    -0.357 OA
HETATM   31  H   UNK N   1     146.352 156.526 157.854  0.00  0.00     0.218 HD
ENDBRANCH  16  30
BRANCH  15  32
HETATM   32  C   UNK N   1     147.403 157.959 159.770  0.00  0.00     0.013 C 
HETATM   33  C   UNK N   1     148.561 157.900 160.775  0.00  0.00     0.015 C 
HETATM   34  C   UNK N   1     146.179 158.653 160.379  0.00  0.00     0.015 C 
ENDBRANCH  15  32
TORSDOF 5
ENDMDL
MODEL 7
REMARK VINA RESULT:      -7.1     46.885     50.655
REMARK  5 active torsions:
REMARK  status: ('A' for Active; 'I' for Inactive)
REMARK    1  A    between atoms: O_2  and  C_18 
REMARK    2  A    between atoms: O_3  and  C_22 
REMARK       I    between atoms: N_4  and  C_14 
REMARK    3  A    between atoms: N_4  and  C_20 
REMARK    4  A    between atoms: C_6  and  C_14 
REMARK    5  A    between atoms: C_21  and  C_25 
ROOT
HETATM    1  C   UNK N   1     144.777 133.573 145.129  0.00  0.00     0.016 C 
HETATM    2  C   UNK N   1     144.485 133.712 143.562  0.00  0.00     0.075 C 
HETATM    3  C   UNK N   1     146.012 132.663 145.513  0.00  0.00    -0.043 C 
HETATM    4  C   UNK N   1     145.833 134.303 143.001  0.00  0.00     0.025 C 
HETATM    5  C   UNK N   1     147.259 133.201 144.764  0.00  0.00     0.009 C 
HETATM    6  C   UNK N   1     143.490 133.282 145.907  0.00  0.00     0.011 C 
HETATM    7  C   UNK N   1     147.032 133.367 143.266  0.00  0.00     0.002 C 
HETATM    8  C   UNK N   1     143.282 134.665 143.316  0.00  0.00     0.003 A 
HETATM    9  C   UNK N   1     142.538 134.468 145.774  0.00  0.00     0.040 C 
HETATM   10  C   UNK N   1     146.341 132.779 147.027  0.00  0.00     0.015 C 
HETATM   11  C   UNK N   1     145.783 131.163 145.211  0.00  0.00     0.015 C 
HETATM   12  C   UNK N   1     142.398 135.013 144.374  0.00  0.00    -0.047 A 
HETATM   13  C   UNK N   1     143.006 135.167 142.008  0.00  0.00     0.107 A 
HETATM   14  C   UNK N   1     141.328 135.883 144.137  0.00  0.00     0.018 A 
HETATM   15  C   UNK N   1     141.078 136.408 142.864  0.00  0.00    -0.018 A 
HETATM   16  C   UNK N   1     141.914 136.049 141.792  0.00  0.00     0.106 A 
ENDROOT
BRANCH   2  17
HETATM   17  C   UNK N   1     144.035 132.412 142.835  0.00  0.00     0.231 C 
HETATM   18  O   UNK N   1     143.012 131.857 143.202  0.00  0.00    -0.272 OA
HETATM   19  N   UNK N   1     144.709 131.922 141.745  0.00  0.00    -0.355 N 
HETATM   20  H   UNK N   1     145.555 132.393 141.415  0.00  0.00     0.162 HD
BRANCH  19  21
HETATM   21  C   UNK N   1     144.274 130.745 140.991  0.00  0.00     0.084 C 
HETATM   22  C   UNK N   1     145.070 129.523 141.522  0.00  0.00     0.025 C 
HETATM   23  C   UNK N   1     144.496 128.192 141.047  0.00  0.00     0.002 C 
HETATM   24  C   UNK N   1     144.986 127.698 139.686  0.00  0.00     0.000 C 
HETATM   25  C   UNK N   1     145.155 128.730 138.568  0.00  0.00     0.000 C 
HETATM   26  C   UNK N   1     144.102 129.838 138.508  0.00  0.00     0.002 C 
HETATM   27  C   UNK N   1     144.427 131.001 139.470  0.00  0.00     0.025 C 
ENDBRANCH  19  21
ENDBRANCH   2  17
BRANCH  13  28
HETATM   28  O   UNK N   1     143.791 134.782 140.977  0.00  0.00    -0.357 OA
HETATM   29  H   UNK N   1     143.530 134.197 140.258  0.00  0.00     0.218 HD
ENDBRANCH  13  28
BRANCH  16  30
HETATM   30  O   UNK N   1     141.645 136.559 140.565  0.00  0.00    -0.357 OA
HETATM   31  H   UNK N   1     141.126 137.352 140.391  0.00  0.00     0.218 HD
ENDBRANCH  16  30
BRANCH  15  32
HETATM   32  C   UNK N   1     139.888 137.339 142.645  0.00  0.00     0.013 C 
HETATM   33  C   UNK N   1     138.576 136.544 142.617  0.00  0.00     0.015 C 
HETATM   34  C   UNK N   1     139.843 138.440 143.712  0.00  0.00     0.015 C 
ENDBRANCH  15  32
TORSDOF 5
ENDMDL
MODEL 8
REMARK VINA RESULT:      -7.1     43.294     45.722
REMARK  5 active torsions:
REMARK  status: ('A' for Active; 'I' for Inactive)
REMARK    1  A    between atoms: O_2  and  C_18 
REMARK    2  A    between atoms: O_3  and  C_22 
REMARK       I    between atoms: N_4  and  C_14 
REMARK    3  A    between atoms: N_4  and  C_20 
REMARK    4  A    between atoms: C_6  and  C_14 
REMARK    5  A    between atoms: C_21  and  C_25 
ROOT
HETATM    1  C   UNK N   1     162.585 134.532 164.842  0.00  0.00     0.016 C 
HETATM    2  C   UNK N   1     162.443 133.330 165.888  0.00  0.00     0.075 C 
HETATM    3  C   UNK N   1     164.067 134.950 164.483  0.00  0.00    -0.043 C 
HETATM    4  C   UNK N   1     163.218 132.153 165.185  0.00  0.00     0.025 C 
HETATM    5  C   UNK N   1     164.815 133.687 163.979  0.00  0.00     0.009 C 
HETATM    6  C   UNK N   1     161.654 135.693 165.204  0.00  0.00     0.011 C 
HETATM    7  C   UNK N   1     164.701 132.504 164.933  0.00  0.00     0.002 C 
HETATM    8  C   UNK N   1     160.945 132.986 166.120  0.00  0.00     0.003 A 
HETATM    9  C   UNK N   1     160.203 135.231 165.099  0.00  0.00     0.040 C 
HETATM   10  C   UNK N   1     164.091 135.958 163.301  0.00  0.00     0.015 C 
HETATM   11  C   UNK N   1     164.819 135.611 165.662  0.00  0.00     0.015 C 
HETATM   12  C   UNK N   1     159.919 133.888 165.726  0.00  0.00    -0.047 A 
HETATM   13  C   UNK N   1     160.569 131.781 166.786  0.00  0.00     0.107 A 
HETATM   14  C   UNK N   1     158.575 133.556 165.931  0.00  0.00     0.018 A 
HETATM   15  C   UNK N   1     158.203 132.357 166.548  0.00  0.00    -0.018 A 
HETATM   16  C   UNK N   1     159.198 131.464 166.983  0.00  0.00     0.106 A 
ENDROOT
BRANCH   2  17
HETATM   17  C   UNK N   1     162.946 133.620 167.331  0.00  0.00     0.231 C 
HETATM   18  O   UNK N   1     163.653 132.793 167.884  0.00  0.00    -0.272 OA
HETATM   19  N   UNK N   1     162.686 134.809 167.965  0.00  0.00    -0.355 N 
HETATM   20  H   UNK N   1     162.113 135.518 167.500  0.00  0.00     0.162 HD
BRANCH  19  21
HETATM   21  C   UNK N   1     163.204 135.145 169.291  0.00  0.00     0.084 C 
HETATM   22  C   UNK N   1     162.352 136.317 169.848  0.00  0.00     0.025 C 
HETATM   23  C   UNK N   1     162.578 136.557 171.338  0.00  0.00     0.002 C 
HETATM   24  C   UNK N   1     163.751 137.469 171.700  0.00  0.00     0.000 C 
HETATM   25  C   UNK N   1     165.045 137.323 170.897  0.00  0.00     0.000 C 
HETATM   26  C   UNK N   1     165.438 135.898 170.501  0.00  0.00     0.002 C 
HETATM   27  C   UNK N   1     164.724 135.435 169.212  0.00  0.00     0.025 C 
ENDBRANCH  19  21
ENDBRANCH   2  17
BRANCH  13  28
HETATM   28  O   UNK N   1     161.536 130.950 167.238  0.00  0.00    -0.357 OA
HETATM   29  H   UNK N   1     162.225 130.543 166.702  0.00  0.00     0.218 HD
ENDBRANCH  13  28
BRANCH  16  30
HETATM   30  O   UNK N   1     158.814 130.315 167.591  0.00  0.00    -0.357 OA
HETATM   31  H   UNK N   1     159.391 129.570 167.792  0.00  0.00     0.218 HD
ENDBRANCH  16  30
BRANCH  15  32
HETATM   32  C   UNK N   1     156.725 132.042 166.769  0.00  0.00     0.013 C 
HETATM   33  C   UNK N   1     155.862 133.285 166.516  0.00  0.00     0.015 C 
HETATM   34  C   UNK N   1     156.272 130.869 165.892  0.00  0.00     0.015 C 
ENDBRANCH  15  32
TORSDOF 5
ENDMDL
MODEL 9
REMARK VINA RESULT:      -7.0     26.362     30.047
REMARK  5 active torsions:
REMARK  status: ('A' for Active; 'I' for Inactive)
REMARK    1  A    between atoms: O_2  and  C_18 
REMARK    2  A    between atoms: O_3  and  C_22 
REMARK       I    between atoms: N_4  and  C_14 
REMARK    3  A    between atoms: N_4  and  C_20 
REMARK    4  A    between atoms: C_6  and  C_14 
REMARK    5  A    between atoms: C_21  and  C_25 
ROOT
HETATM    1  C   UNK N   1     148.757 162.187 154.587  0.00  0.00     0.016 C 
HETATM    2  C   UNK N   1     149.692 161.080 155.265  0.00  0.00     0.075 C 
HETATM    3  C   UNK N   1     147.946 163.099 155.592  0.00  0.00    -0.043 C 
HETATM    4  C   UNK N   1     150.656 161.935 156.171  0.00  0.00     0.025 C 
HETATM    5  C   UNK N   1     148.956 163.754 156.572  0.00  0.00     0.009 C 
HETATM    6  C   UNK N   1     147.931 161.587 153.445  0.00  0.00     0.011 C 
HETATM    7  C   UNK N   1     149.884 162.744 157.236  0.00  0.00     0.002 C 
HETATM    8  C   UNK N   1     150.468 160.284 154.177  0.00  0.00     0.003 A 
HETATM    9  C   UNK N   1     148.869 161.113 152.336  0.00  0.00     0.040 C 
HETATM   10  C   UNK N   1     147.255 164.273 154.845  0.00  0.00     0.015 C 
HETATM   11  C   UNK N   1     146.841 162.334 156.358  0.00  0.00     0.015 C 
HETATM   12  C   UNK N   1     150.068 160.332 152.814  0.00  0.00    -0.047 A 
HETATM   13  C   UNK N   1     151.565 159.442 154.533  0.00  0.00     0.107 A 
HETATM   14  C   UNK N   1     150.786 159.620 151.846  0.00  0.00     0.018 A 
HETATM   15  C   UNK N   1     151.886 158.825 152.188  0.00  0.00    -0.018 A 
HETATM   16  C   UNK N   1     152.278 158.728 153.535  0.00  0.00     0.106 A 
ENDROOT
BRANCH   2  17
HETATM   17  C   UNK N   1     148.959 159.951 156.044  0.00  0.00     0.231 C 
HETATM   18  O   UNK N   1     148.274 159.156 155.421  0.00  0.00    -0.272 OA
HETATM   19  N   UNK N   1     149.125 159.777 157.395  0.00  0.00    -0.355 N 
HETATM   20  H   UNK N   1     149.716 160.426 157.923  0.00  0.00     0.162 HD
BRANCH  19  21
HETATM   21  C   UNK N   1     148.510 158.684 158.149  0.00  0.00     0.084 C 
HETATM   22  C   UNK N   1     146.970 158.825 158.015  0.00  0.00     0.025 C 
HETATM   23  C   UNK N   1     146.220 157.583 158.485  0.00  0.00     0.002 C 
HETATM   24  C   UNK N   1     145.907 157.515 159.981  0.00  0.00     0.000 C 
HETATM   25  C   UNK N   1     146.983 157.992 160.960  0.00  0.00     0.000 C 
HETATM   26  C   UNK N   1     148.429 157.655 160.589  0.00  0.00     0.002 C 
HETATM   27  C   UNK N   1     149.032 158.684 159.608  0.00  0.00     0.025 C 
ENDBRANCH  19  21
ENDBRANCH   2  17
BRANCH  13  28
HETATM   28  O   UNK N   1     151.907 159.325 155.837  0.00  0.00    -0.357 OA
HETATM   29  H   UNK N   1     152.580 158.734 156.192  0.00  0.00     0.218 HD
ENDBRANCH  13  28
BRANCH  16  30
HETATM   30  O   UNK N   1     153.338 157.942 153.843  0.00  0.00    -0.357 OA
HETATM   31  H   UNK N   1     154.156 158.243 154.254  0.00  0.00     0.218 HD
ENDBRANCH  16  30
BRANCH  15  32
HETATM   32  C   UNK N   1     152.629 158.049 151.103  0.00  0.00     0.013 C 
HETATM   33  C   UNK N   1     151.691 157.053 150.409  0.00  0.00     0.015 C 
HETATM   34  C   UNK N   1     153.275 158.999 150.087  0.00  0.00     0.015 C 
ENDBRANCH  15  32
TORSDOF 5
ENDMDL
