MODEL 1
REMARK VINA RESULT:      -7.0      0.000      0.000
REMARK  4 active torsions:
REMARK  status: ('A' for Active; 'I' for Inactive)
REMARK    1  A    between atoms: O_2  and  C_18 
REMARK    2  A    between atoms: O_3  and  C_21 
REMARK       I    between atoms: N_4  and  C_17 
REMARK    3  A    between atoms: C_6  and  C_17 
REMARK    4  A    between atoms: C_20  and  C_22 
ROOT
HETATM    1  C   UNK N   1     158.440 121.112 153.360  0.00  0.00     0.016 C 
HETATM    2  C   UNK N   1     157.820 122.548 153.563  0.00  0.00     0.075 C 
HETATM    3  C   UNK N   1     157.513 119.929 153.892  0.00  0.00    -0.043 C 
HETATM    4  C   UNK N   1     156.491 122.529 152.681  0.00  0.00     0.025 C 
HETATM    5  C   UNK N   1     156.000 120.288 153.718  0.00  0.00     0.009 C 
HETATM    6  C   UNK N   1     159.893 121.019 153.809  0.00  0.00     0.011 C 
HETATM    7  C   UNK N   1     155.803 121.153 152.483  0.00  0.00     0.002 C 
HETATM    8  C   UNK N   1     158.781 123.674 153.087  0.00  0.00     0.003 A 
HETATM    9  C   UNK N   1     160.745 121.990 152.995  0.00  0.00     0.040 C 
HETATM   10  C   UNK N   1     157.820 118.654 153.059  0.00  0.00     0.015 C 
HETATM   11  C   UNK N   1     157.745 119.574 155.379  0.00  0.00     0.015 C 
HETATM   12  C   UNK N   1     160.151 123.372 152.815  0.00  0.00    -0.047 A 
HETATM   13  C   UNK N   1     158.358 125.039 152.959  0.00  0.00     0.107 A 
HETATM   14  C   UNK N   1     161.023 124.380 152.389  0.00  0.00     0.018 A 
HETATM   15  C   UNK N   1     160.593 125.704 152.234  0.00  0.00    -0.018 A 
HETATM   16  C   UNK N   1     159.256 126.026 152.512  0.00  0.00     0.106 A 
ENDROOT
BRANCH   2  17
HETATM   17  C   UNK N   1     157.554 122.888 155.050  0.00  0.00     0.231 C 
HETATM   18  O   UNK N   1     156.426 123.178 155.416  0.00  0.00    -0.272 OA
HETATM   19  N   UNK N   1     158.598 122.975 155.935  0.00  0.00    -0.364 N 
HETATM   20  C   UNK N   1     158.442 123.402 157.309  0.00  0.00     0.149 C 
HETATM   21  H   UNK N   1     159.559 122.794 155.619  0.00  0.00     0.161 HD
ENDBRANCH   2  17
BRANCH  13  22
HETATM   22  O   UNK N   1     157.112 125.451 153.282  0.00  0.00    -0.357 OA
HETATM   23  H   UNK N   1     156.505 124.980 153.853  0.00  0.00     0.218 HD
ENDBRANCH  13  22
BRANCH  16  24
HETATM   24  O   UNK N   1     158.839 127.307 152.375  0.00  0.00    -0.357 OA
HETATM   25  H   UNK N   1     158.101 127.679 152.877  0.00  0.00     0.218 HD
ENDBRANCH  16  24
BRANCH  15  26
HETATM   26  C   UNK N   1     161.579 126.788 151.817  0.00  0.00     0.013 C 
HETATM   27  C   UNK N   1     162.134 127.508 153.055  0.00  0.00     0.015 C 
HETATM   28  C   UNK N   1     162.710 126.223 150.953  0.00  0.00     0.015 C 
ENDBRANCH  15  26
TORSDOF 4
ENDMDL
MODEL 2
REMARK VINA RESULT:      -7.0     14.298     16.855
REMARK  4 active torsions:
REMARK  status: ('A' for Active; 'I' for Inactive)
REMARK    1  A    between atoms: O_2  and  C_18 
REMARK    2  A    between atoms: O_3  and  C_21 
REMARK       I    between atoms: N_4  and  C_17 
REMARK    3  A    between atoms: C_6  and  C_17 
REMARK    4  A    between atoms: C_20  and  C_22 
ROOT
HETATM    1  C   UNK N   1     153.903 133.028 167.646  0.00  0.00     0.016 C 
HETATM    2  C   UNK N   1     154.904 131.817 167.510  0.00  0.00     0.075 C 
HETATM    3  C   UNK N   1     152.455 132.610 168.166  0.00  0.00    -0.043 C 
HETATM    4  C   UNK N   1     155.055 131.264 168.999  0.00  0.00     0.025 C 
HETATM    5  C   UNK N   1     152.547 131.404 169.157  0.00  0.00     0.009 C 
HETATM    6  C   UNK N   1     153.893 133.934 166.422  0.00  0.00     0.011 C 
HETATM    7  C   UNK N   1     153.845 131.469 169.946  0.00  0.00     0.002 C 
HETATM    8  C   UNK N   1     156.284 132.258 166.944  0.00  0.00     0.003 A 
HETATM    9  C   UNK N   1     155.283 134.530 166.211  0.00  0.00     0.040 C 
HETATM   10  C   UNK N   1     151.835 133.822 168.914  0.00  0.00     0.015 C 
HETATM   11  C   UNK N   1     151.475 132.218 167.035  0.00  0.00     0.015 C 
HETATM   12  C   UNK N   1     156.429 133.549 166.351  0.00  0.00    -0.047 A 
HETATM   13  C   UNK N   1     157.425 131.387 166.942  0.00  0.00     0.107 A 
HETATM   14  C   UNK N   1     157.667 133.952 165.837  0.00  0.00     0.018 A 
HETATM   15  C   UNK N   1     158.784 133.109 165.869  0.00  0.00    -0.018 A 
HETATM   16  C   UNK N   1     158.660 131.829 166.432  0.00  0.00     0.106 A 
ENDROOT
BRANCH   2  17
HETATM   17  C   UNK N   1     154.418 130.738 166.511  0.00  0.00     0.231 C 
HETATM   18  O   UNK N   1     154.047 131.065 165.394  0.00  0.00    -0.272 OA
HETATM   19  N   UNK N   1     154.296 129.433 166.912  0.00  0.00    -0.364 N 
HETATM   20  C   UNK N   1     153.738 128.392 166.073  0.00  0.00     0.149 C 
HETATM   21  H   UNK N   1     154.547 129.161 167.870  0.00  0.00     0.161 HD
ENDBRANCH   2  17
BRANCH  13  22
HETATM   22  O   UNK N   1     157.373 130.113 167.390  0.00  0.00    -0.357 OA
HETATM   23  H   UNK N   1     157.054 129.842 168.251  0.00  0.00     0.218 HD
ENDBRANCH  13  22
BRANCH  16  24
HETATM   24  O   UNK N   1     159.735 131.006 166.455  0.00  0.00    -0.357 OA
HETATM   25  H   UNK N   1     160.584 131.235 166.053  0.00  0.00     0.218 HD
ENDBRANCH  16  24
BRANCH  15  26
HETATM   26  C   UNK N   1     160.105 133.558 165.255  0.00  0.00     0.013 C 
HETATM   27  C   UNK N   1     160.157 133.180 163.768  0.00  0.00     0.015 C 
HETATM   28  C   UNK N   1     160.339 135.059 165.453  0.00  0.00     0.015 C 
ENDBRANCH  15  26
TORSDOF 4
ENDMDL
MODEL 3
REMARK VINA RESULT:      -6.8     44.681     46.494
REMARK  4 active torsions:
REMARK  status: ('A' for Active; 'I' for Inactive)
REMARK    1  A    between atoms: O_2  and  C_18 
REMARK    2  A    between atoms: O_3  and  C_21 
REMARK       I    between atoms: N_4  and  C_17 
REMARK    3  A    between atoms: C_6  and  C_17 
REMARK    4  A    between atoms: C_20  and  C_22 
ROOT
HETATM    1  C   UNK N   1     136.185 145.772 119.024  0.00  0.00     0.016 C 
HETATM    2  C   UNK N   1     136.930 147.161 118.988  0.00  0.00     0.075 C 
HETATM    3  C   UNK N   1     135.248 145.511 117.760  0.00  0.00    -0.043 C 
HETATM    4  C   UNK N   1     137.860 147.073 117.694  0.00  0.00     0.025 C 
HETATM    5  C   UNK N   1     135.846 146.177 116.478  0.00  0.00     0.009 C 
HETATM    6  C   UNK N   1     135.522 145.484 120.365  0.00  0.00     0.011 C 
HETATM    7  C   UNK N   1     137.365 146.165 116.538  0.00  0.00     0.002 C 
HETATM    8  C   UNK N   1     137.784 147.401 120.265  0.00  0.00     0.003 A 
HETATM    9  C   UNK N   1     136.582 145.447 121.464  0.00  0.00     0.040 C 
HETATM   10  C   UNK N   1     135.156 143.978 117.528  0.00  0.00     0.015 C 
HETATM   11  C   UNK N   1     133.804 146.037 117.935  0.00  0.00     0.015 C 
HETATM   12  C   UNK N   1     137.603 146.565 121.409  0.00  0.00    -0.047 A 
HETATM   13  C   UNK N   1     138.725 148.481 120.365  0.00  0.00     0.107 A 
HETATM   14  C   UNK N   1     138.366 146.777 122.563  0.00  0.00     0.018 A 
HETATM   15  C   UNK N   1     139.306 147.811 122.641  0.00  0.00    -0.018 A 
HETATM   16  C   UNK N   1     139.489 148.655 121.534  0.00  0.00     0.106 A 
ENDROOT
BRANCH   2  17
HETATM   17  C   UNK N   1     135.961 148.368 118.954  0.00  0.00     0.231 C 
HETATM   18  O   UNK N   1     136.034 149.184 118.048  0.00  0.00    -0.272 OA
HETATM   19  N   UNK N   1     135.096 148.586 119.996  0.00  0.00    -0.364 N 
HETATM   20  C   UNK N   1     134.245 149.755 120.092  0.00  0.00     0.149 C 
HETATM   21  H   UNK N   1     135.073 147.938 120.792  0.00  0.00     0.161 HD
ENDBRANCH   2  17
BRANCH  13  22
HETATM   22  O   UNK N   1     138.906 149.387 119.380  0.00  0.00    -0.357 OA
HETATM   23  H   UNK N   1     138.255 149.618 118.716  0.00  0.00     0.218 HD
ENDBRANCH  13  22
BRANCH  16  24
HETATM   24  O   UNK N   1     140.389 149.664 121.610  0.00  0.00    -0.357 OA
HETATM   25  H   UNK N   1     140.938 149.938 120.863  0.00  0.00     0.218 HD
ENDBRANCH  16  24
BRANCH  15  26
HETATM   26  C   UNK N   1     140.085 148.047 123.930  0.00  0.00     0.013 C 
HETATM   27  C   UNK N   1     139.186 147.795 125.149  0.00  0.00     0.015 C 
HETATM   28  C   UNK N   1     141.352 147.188 123.990  0.00  0.00     0.015 C 
ENDBRANCH  15  26
TORSDOF 4
ENDMDL
MODEL 4
REMARK VINA RESULT:      -6.7     55.420     57.283
REMARK  4 active torsions:
REMARK  status: ('A' for Active; 'I' for Inactive)
REMARK    1  A    between atoms: O_2  and  C_18 
REMARK    2  A    between atoms: O_3  and  C_21 
REMARK       I    between atoms: N_4  and  C_17 
REMARK    3  A    between atoms: C_6  and  C_17 
REMARK    4  A    between atoms: C_20  and  C_22 
ROOT
HETATM    1  C   UNK N   1     133.480 168.051 177.032  0.00  0.00     0.016 C 
HETATM    2  C   UNK N   1     133.511 167.956 178.606  0.00  0.00     0.075 C 
HETATM    3  C   UNK N   1     132.290 167.229 176.361  0.00  0.00    -0.043 C 
HETATM    4  C   UNK N   1     132.133 168.617 179.066  0.00  0.00     0.025 C 
HETATM    5  C   UNK N   1     131.029 167.220 177.287  0.00  0.00     0.009 C 
HETATM    6  C   UNK N   1     134.843 167.817 176.393  0.00  0.00     0.011 C 
HETATM    7  C   UNK N   1     130.945 168.518 178.074  0.00  0.00     0.002 C 
HETATM    8  C   UNK N   1     134.719 168.721 179.216  0.00  0.00     0.003 A 
HETATM    9  C   UNK N   1     135.828 168.876 176.882  0.00  0.00     0.040 C 
HETATM   10  C   UNK N   1     131.917 167.915 175.018  0.00  0.00     0.015 C 
HETATM   11  C   UNK N   1     132.650 165.759 176.041  0.00  0.00     0.015 C 
HETATM   12  C   UNK N   1     135.787 169.152 178.371  0.00  0.00    -0.047 A 
HETATM   13  C   UNK N   1     134.837 168.970 180.625  0.00  0.00     0.107 A 
HETATM   14  C   UNK N   1     136.880 169.839 178.913  0.00  0.00     0.018 A 
HETATM   15  C   UNK N   1     136.971 170.107 180.284  0.00  0.00    -0.018 A 
HETATM   16  C   UNK N   1     135.941 169.679 181.135  0.00  0.00     0.106 A 
ENDROOT
BRANCH   2  17
HETATM   17  C   UNK N   1     133.688 166.507 179.122  0.00  0.00     0.231 C 
HETATM   18  O   UNK N   1     134.607 165.820 178.704  0.00  0.00    -0.272 OA
HETATM   19  N   UNK N   1     132.753 165.954 179.959  0.00  0.00    -0.364 N 
HETATM   20  C   UNK N   1     132.787 164.571 180.387  0.00  0.00     0.149 C 
HETATM   21  H   UNK N   1     131.943 166.506 180.264  0.00  0.00     0.161 HD
ENDBRANCH   2  17
BRANCH  13  22
HETATM   22  O   UNK N   1     133.933 168.523 181.524  0.00  0.00    -0.357 OA
HETATM   23  H   UNK N   1     133.658 167.611 181.624  0.00  0.00     0.218 HD
ENDBRANCH  13  22
BRANCH  16  24
HETATM   24  O   UNK N   1     136.030 169.926 182.463  0.00  0.00    -0.357 OA
HETATM   25  H   UNK N   1     136.300 169.257 183.107  0.00  0.00     0.218 HD
ENDBRANCH  16  24
BRANCH  15  26
HETATM   26  C   UNK N   1     138.198 170.813 180.849  0.00  0.00     0.013 C 
HETATM   27  C   UNK N   1     139.399 170.627 179.911  0.00  0.00     0.015 C 
HETATM   28  C   UNK N   1     137.926 172.297 181.112  0.00  0.00     0.015 C 
ENDBRANCH  15  26
TORSDOF 4
ENDMDL
MODEL 5
REMARK VINA RESULT:      -6.7     34.207     37.220
REMARK  4 active torsions:
REMARK  status: ('A' for Active; 'I' for Inactive)
REMARK    1  A    between atoms: O_2  and  C_18 
REMARK    2  A    between atoms: O_3  and  C_21 
REMARK       I    between atoms: N_4  and  C_17 
REMARK    3  A    between atoms: C_6  and  C_17 
REMARK    4  A    between atoms: C_20  and  C_22 
ROOT
HETATM    1  C   UNK N   1     150.339 157.711 153.174  0.00  0.00     0.016 C 
HETATM    2  C   UNK N   1     150.655 158.318 154.595  0.00  0.00     0.075 C 
HETATM    3  C   UNK N   1     150.446 156.121 153.116  0.00  0.00    -0.043 C 
HETATM    4  C   UNK N   1     149.521 157.713 155.540  0.00  0.00     0.025 C 
HETATM    5  C   UNK N   1     150.020 155.485 154.480  0.00  0.00     0.009 C 
HETATM    6  C   UNK N   1     151.064 158.429 152.043  0.00  0.00     0.011 C 
HETATM    7  C   UNK N   1     148.943 156.330 155.142  0.00  0.00     0.002 C 
HETATM    8  C   UNK N   1     150.599 159.872 154.594  0.00  0.00     0.003 A 
HETATM    9  C   UNK N   1     150.633 159.893 152.005  0.00  0.00     0.040 C 
HETATM   10  C   UNK N   1     149.487 155.607 152.007  0.00  0.00     0.015 C 
HETATM   11  C   UNK N   1     151.863 155.602 152.776  0.00  0.00     0.015 C 
HETATM   12  C   UNK N   1     150.576 160.581 153.354  0.00  0.00    -0.047 A 
HETATM   13  C   UNK N   1     150.625 160.641 155.806  0.00  0.00     0.107 A 
HETATM   14  C   UNK N   1     150.529 161.980 153.344  0.00  0.00     0.018 A 
HETATM   15  C   UNK N   1     150.521 162.722 154.532  0.00  0.00    -0.018 A 
HETATM   16  C   UNK N   1     150.559 162.046 155.761  0.00  0.00     0.106 A 
ENDROOT
BRANCH   2  17
HETATM   17  C   UNK N   1     152.087 157.997 155.087  0.00  0.00     0.231 C 
HETATM   18  O   UNK N   1     152.255 157.501 156.191  0.00  0.00    -0.272 OA
HETATM   19  N   UNK N   1     153.173 158.368 154.338  0.00  0.00    -0.364 N 
HETATM   20  C   UNK N   1     154.541 158.209 154.786  0.00  0.00     0.149 C 
HETATM   21  H   UNK N   1     153.040 158.843 153.436  0.00  0.00     0.161 HD
ENDBRANCH   2  17
BRANCH  13  22
HETATM   22  O   UNK N   1     150.743 160.076 157.027  0.00  0.00    -0.357 OA
HETATM   23  H   UNK N   1     151.511 160.144 157.596  0.00  0.00     0.218 HD
ENDBRANCH  13  22
BRANCH  16  24
HETATM   24  O   UNK N   1     150.564 162.760 156.912  0.00  0.00    -0.357 OA
HETATM   25  H   UNK N   1     150.046 163.567 157.034  0.00  0.00     0.218 HD
ENDBRANCH  16  24
BRANCH  15  26
HETATM   26  C   UNK N   1     150.520 164.245 154.486  0.00  0.00     0.013 C 
HETATM   27  C   UNK N   1     151.227 164.741 153.217  0.00  0.00     0.015 C 
HETATM   28  C   UNK N   1     149.101 164.814 154.587  0.00  0.00     0.015 C 
ENDBRANCH  15  26
TORSDOF 4
ENDMDL
MODEL 6
REMARK VINA RESULT:      -6.5     13.977     15.787
REMARK  4 active torsions:
REMARK  status: ('A' for Active; 'I' for Inactive)
REMARK    1  A    between atoms: O_2  and  C_18 
REMARK    2  A    between atoms: O_3  and  C_21 
REMARK       I    between atoms: N_4  and  C_17 
REMARK    3  A    between atoms: C_6  and  C_17 
REMARK    4  A    between atoms: C_20  and  C_22 
ROOT
HETATM    1  C   UNK N   1     171.639 132.784 149.671  0.00  0.00     0.016 C 
HETATM    2  C   UNK N   1     170.259 132.552 150.400  0.00  0.00     0.075 C 
HETATM    3  C   UNK N   1     172.873 132.082 150.395  0.00  0.00    -0.043 C 
HETATM    4  C   UNK N   1     170.039 130.974 150.329  0.00  0.00     0.025 C 
HETATM    5  C   UNK N   1     172.431 130.746 151.079  0.00  0.00     0.009 C 
HETATM    6  C   UNK N   1     171.878 134.241 149.296  0.00  0.00     0.011 C 
HETATM    7  C   UNK N   1     171.314 130.092 150.282  0.00  0.00     0.002 C 
HETATM    8  C   UNK N   1     169.092 133.303 149.697  0.00  0.00     0.003 A 
HETATM    9  C   UNK N   1     170.787 134.710 148.337  0.00  0.00     0.040 C 
HETATM   10  C   UNK N   1     173.949 131.758 149.322  0.00  0.00     0.015 C 
HETATM   11  C   UNK N   1     173.550 132.962 151.472  0.00  0.00     0.015 C 
HETATM   12  C   UNK N   1     169.378 134.305 148.719  0.00  0.00    -0.047 A 
HETATM   13  C   UNK N   1     167.717 133.068 150.034  0.00  0.00     0.107 A 
HETATM   14  C   UNK N   1     168.333 134.987 148.085  0.00  0.00     0.018 A 
HETATM   15  C   UNK N   1     166.993 134.727 148.395  0.00  0.00    -0.018 A 
HETATM   16  C   UNK N   1     166.690 133.759 149.364  0.00  0.00     0.106 A 
ENDROOT
BRANCH   2  17
HETATM   17  C   UNK N   1     170.238 133.101 151.847  0.00  0.00     0.231 C 
HETATM   18  O   UNK N   1     169.972 132.356 152.778  0.00  0.00    -0.272 OA
HETATM   19  N   UNK N   1     170.406 134.442 152.078  0.00  0.00    -0.364 N 
HETATM   20  C   UNK N   1     170.282 135.045 153.389  0.00  0.00     0.149 C 
HETATM   21  H   UNK N   1     170.568 135.085 151.294  0.00  0.00     0.161 HD
ENDBRANCH   2  17
BRANCH  13  22
HETATM   22  O   UNK N   1     167.339 132.213 151.010  0.00  0.00    -0.357 OA
HETATM   23  H   UNK N   1     166.721 131.490 150.902  0.00  0.00     0.218 HD
ENDBRANCH  13  22
BRANCH  16  24
HETATM   24  O   UNK N   1     165.395 133.513 149.676  0.00  0.00    -0.357 OA
HETATM   25  H   UNK N   1     164.765 134.211 149.900  0.00  0.00     0.218 HD
ENDBRANCH  16  24
BRANCH  15  26
HETATM   26  C   UNK N   1     165.881 135.523 147.723  0.00  0.00     0.013 C 
HETATM   27  C   UNK N   1     166.394 136.908 147.304  0.00  0.00     0.015 C 
HETATM   28  C   UNK N   1     165.287 134.769 146.528  0.00  0.00     0.015 C 
ENDBRANCH  15  26
TORSDOF 4
ENDMDL
MODEL 7
REMARK VINA RESULT:      -6.4     42.849     45.038
REMARK  4 active torsions:
REMARK  status: ('A' for Active; 'I' for Inactive)
REMARK    1  A    between atoms: O_2  and  C_18 
REMARK    2  A    between atoms: O_3  and  C_21 
REMARK       I    between atoms: N_4  and  C_17 
REMARK    3  A    between atoms: C_6  and  C_17 
REMARK    4  A    between atoms: C_20  and  C_22 
ROOT
HETATM    1  C   UNK N   1     143.696 152.455 122.660  0.00  0.00     0.016 C 
HETATM    2  C   UNK N   1     142.563 152.424 123.758  0.00  0.00     0.075 C 
HETATM    3  C   UNK N   1     144.669 153.713 122.775  0.00  0.00    -0.043 C 
HETATM    4  C   UNK N   1     143.358 152.309 125.137  0.00  0.00     0.025 C 
HETATM    5  C   UNK N   1     144.852 154.139 124.269  0.00  0.00     0.009 C 
HETATM    6  C   UNK N   1     143.171 152.195 121.254  0.00  0.00     0.011 C 
HETATM    7  C   UNK N   1     144.782 152.921 125.176  0.00  0.00     0.002 C 
HETATM    8  C   UNK N   1     141.602 151.216 123.574  0.00  0.00     0.003 A 
HETATM    9  C   UNK N   1     142.532 150.809 121.193  0.00  0.00     0.040 C 
HETATM   10  C   UNK N   1     146.054 153.313 122.198  0.00  0.00     0.015 C 
HETATM   11  C   UNK N   1     144.183 154.952 121.988  0.00  0.00     0.015 C 
HETATM   12  C   UNK N   1     141.624 150.469 122.357  0.00  0.00    -0.047 A 
HETATM   13  C   UNK N   1     140.637 150.846 124.570  0.00  0.00     0.107 A 
HETATM   14  C   UNK N   1     140.759 149.382 122.182  0.00  0.00     0.018 A 
HETATM   15  C   UNK N   1     139.844 149.007 123.173  0.00  0.00    -0.018 A 
HETATM   16  C   UNK N   1     139.793 149.738 124.370  0.00  0.00     0.106 A 
ENDROOT
BRANCH   2  17
HETATM   17  C   UNK N   1     141.629 153.658 123.700  0.00  0.00     0.231 C 
HETATM   18  O   UNK N   1     141.085 153.961 122.649  0.00  0.00    -0.272 OA
HETATM   19  N   UNK N   1     141.498 154.476 124.792  0.00  0.00    -0.364 N 
HETATM   20  C   UNK N   1     140.739 155.709 124.776  0.00  0.00     0.149 C 
HETATM   21  H   UNK N   1     142.004 154.262 125.661  0.00  0.00     0.161 HD
ENDBRANCH   2  17
BRANCH  13  22
HETATM   22  O   UNK N   1     140.465 151.543 125.716  0.00  0.00    -0.357 OA
HETATM   23  H   UNK N   1     141.083 152.182 126.071  0.00  0.00     0.218 HD
ENDBRANCH  13  22
BRANCH  16  24
HETATM   24  O   UNK N   1     138.902 149.385 125.327  0.00  0.00    -0.357 OA
HETATM   25  H   UNK N   1     139.040 148.642 125.929  0.00  0.00     0.218 HD
ENDBRANCH  16  24
BRANCH  15  26
HETATM   26  C   UNK N   1     138.881 147.851 122.932  0.00  0.00     0.013 C 
HETATM   27  C   UNK N   1     138.617 147.682 121.430  0.00  0.00     0.015 C 
HETATM   28  C   UNK N   1     139.395 146.548 123.553  0.00  0.00     0.015 C 
ENDBRANCH  15  26
TORSDOF 4
ENDMDL
MODEL 8
REMARK VINA RESULT:      -6.4     12.984     14.627
REMARK  4 active torsions:
REMARK  status: ('A' for Active; 'I' for Inactive)
REMARK    1  A    between atoms: O_2  and  C_18 
REMARK    2  A    between atoms: O_3  and  C_21 
REMARK       I    between atoms: N_4  and  C_17 
REMARK    3  A    between atoms: C_6  and  C_17 
REMARK    4  A    between atoms: C_20  and  C_22 
ROOT
HETATM    1  C   UNK N   1     168.899 130.809 149.999  0.00  0.00     0.016 C 
HETATM    2  C   UNK N   1     168.841 132.298 150.515  0.00  0.00     0.075 C 
HETATM    3  C   UNK N   1     169.933 129.892 150.793  0.00  0.00    -0.043 C 
HETATM    4  C   UNK N   1     168.333 132.171 152.022  0.00  0.00     0.025 C 
HETATM    5  C   UNK N   1     170.026 130.328 152.292  0.00  0.00     0.009 C 
HETATM    6  C   UNK N   1     169.005 130.706 148.483  0.00  0.00     0.011 C 
HETATM    7  C   UNK N   1     168.683 130.858 152.770  0.00  0.00     0.002 C 
HETATM    8  C   UNK N   1     167.866 133.172 149.677  0.00  0.00     0.003 A 
HETATM    9  C   UNK N   1     167.782 131.353 147.837  0.00  0.00     0.040 C 
HETATM   10  C   UNK N   1     169.433 128.423 150.732  0.00  0.00     0.015 C 
HETATM   11  C   UNK N   1     171.365 129.914 150.206  0.00  0.00     0.015 C 
HETATM   12  C   UNK N   1     167.376 132.689 148.425  0.00  0.00    -0.047 A 
HETATM   13  C   UNK N   1     167.473 134.490 150.087  0.00  0.00     0.107 A 
HETATM   14  C   UNK N   1     166.500 133.471 147.663  0.00  0.00     0.018 A 
HETATM   15  C   UNK N   1     166.095 134.742 148.087  0.00  0.00    -0.018 A 
HETATM   16  C   UNK N   1     166.577 135.243 149.305  0.00  0.00     0.106 A 
ENDROOT
BRANCH   2  17
HETATM   17  C   UNK N   1     170.198 133.033 150.396  0.00  0.00     0.231 C 
HETATM   18  O   UNK N   1     170.733 133.493 151.394  0.00  0.00    -0.272 OA
HETATM   19  N   UNK N   1     170.748 133.270 149.162  0.00  0.00    -0.364 N 
HETATM   20  C   UNK N   1     171.950 134.052 148.963  0.00  0.00     0.149 C 
HETATM   21  H   UNK N   1     170.272 132.941 148.313  0.00  0.00     0.161 HD
ENDBRANCH   2  17
BRANCH  13  22
HETATM   22  O   UNK N   1     167.952 135.082 151.203  0.00  0.00    -0.357 OA
HETATM   23  H   UNK N   1     168.449 134.640 151.893  0.00  0.00     0.218 HD
ENDBRANCH  13  22
BRANCH  16  24
HETATM   24  O   UNK N   1     166.197 136.477 149.713  0.00  0.00    -0.357 OA
HETATM   25  H   UNK N   1     165.292 136.806 149.627  0.00  0.00     0.218 HD
ENDBRANCH  16  24
BRANCH  15  26
HETATM   26  C   UNK N   1     165.180 135.589 147.210  0.00  0.00     0.013 C 
HETATM   27  C   UNK N   1     165.905 136.865 146.760  0.00  0.00     0.015 C 
HETATM   28  C   UNK N   1     164.657 134.797 146.007  0.00  0.00     0.015 C 
ENDBRANCH  15  26
TORSDOF 4
ENDMDL
MODEL 9
REMARK VINA RESULT:      -6.3     33.531     36.706
REMARK  4 active torsions:
REMARK  status: ('A' for Active; 'I' for Inactive)
REMARK    1  A    between atoms: O_2  and  C_18 
REMARK    2  A    between atoms: O_3  and  C_21 
REMARK       I    between atoms: N_4  and  C_17 
REMARK    3  A    between atoms: C_6  and  C_17 
REMARK    4  A    between atoms: C_20  and  C_22 
ROOT
HETATM    1  C   UNK N   1     151.076 158.224 152.229  0.00  0.00     0.016 C 
HETATM    2  C   UNK N   1     151.482 157.994 153.736  0.00  0.00     0.075 C 
HETATM    3  C   UNK N   1     152.016 157.468 151.187  0.00  0.00    -0.043 C 
HETATM    4  C   UNK N   1     151.299 156.424 153.956  0.00  0.00     0.025 C 
HETATM    5  C   UNK N   1     152.533 156.117 151.783  0.00  0.00     0.009 C 
HETATM    6  C   UNK N   1     150.821 159.688 151.896  0.00  0.00     0.011 C 
HETATM    7  C   UNK N   1     151.489 155.518 152.712  0.00  0.00     0.002 C 
HETATM    8  C   UNK N   1     150.578 158.796 154.715  0.00  0.00     0.003 A 
HETATM    9  C   UNK N   1     149.672 160.217 152.751  0.00  0.00     0.040 C 
HETATM   10  C   UNK N   1     151.185 157.163 149.910  0.00  0.00     0.015 C 
HETATM   11  C   UNK N   1     153.249 158.291 150.747  0.00  0.00     0.015 C 
HETATM   12  C   UNK N   1     149.727 159.828 154.214  0.00  0.00    -0.047 A 
HETATM   13  C   UNK N   1     150.603 158.577 156.134  0.00  0.00     0.107 A 
HETATM   14  C   UNK N   1     148.913 160.556 155.089  0.00  0.00     0.018 A 
HETATM   15  C   UNK N   1     148.919 160.313 156.468  0.00  0.00    -0.018 A 
HETATM   16  C   UNK N   1     149.759 159.315 156.984  0.00  0.00     0.106 A 
ENDROOT
BRANCH   2  17
HETATM   17  C   UNK N   1     152.913 158.487 154.060  0.00  0.00     0.231 C 
HETATM   18  O   UNK N   1     153.239 159.632 153.786  0.00  0.00    -0.272 OA
HETATM   19  N   UNK N   1     153.850 157.613 154.548  0.00  0.00    -0.364 N 
HETATM   20  C   UNK N   1     155.237 157.971 154.762  0.00  0.00     0.149 C 
HETATM   21  H   UNK N   1     153.599 156.632 154.721  0.00  0.00     0.161 HD
ENDBRANCH   2  17
BRANCH  13  22
HETATM   22  O   UNK N   1     151.439 157.694 156.723  0.00  0.00    -0.357 OA
HETATM   23  H   UNK N   1     151.577 156.790 156.439  0.00  0.00     0.218 HD
ENDBRANCH  13  22
BRANCH  16  24
HETATM   24  O   UNK N   1     149.776 159.085 158.319  0.00  0.00    -0.357 OA
HETATM   25  H   UNK N   1     150.447 159.454 158.909  0.00  0.00     0.218 HD
ENDBRANCH  16  24
BRANCH  15  26
HETATM   26  C   UNK N   1     148.058 161.158 157.400  0.00  0.00     0.013 C 
HETATM   27  C   UNK N   1     148.395 162.646 157.234  0.00  0.00     0.015 C 
HETATM   28  C   UNK N   1     146.564 160.901 157.179  0.00  0.00     0.015 C 
ENDBRANCH  15  26
TORSDOF 4
ENDMDL
