MODEL 1
REMARK VINA RESULT:      -6.5      0.000      0.000
REMARK  7 active torsions:
REMARK  status: ('A' for Active; 'I' for Inactive)
REMARK    1  A    between atoms: O_2  and  C_19 
REMARK    2  A    between atoms: O_3  and  C_22 
REMARK    3  A    between atoms: O_4  and  C_27 
REMARK       I    between atoms: N_5  and  C_18 
REMARK    4  A    between atoms: N_5  and  C_24 
REMARK    5  A    between atoms: C_7  and  C_18 
REMARK    6  A    between atoms: C_21  and  C_23 
REMARK    7  A    between atoms: C_24  and  C_27 
ROOT
HETATM    1  C   UNK N   1     139.585 148.463 121.479  0.00  0.00     0.016 C 
HETATM    2  C   UNK N   1     138.327 147.606 121.976  0.00  0.00     0.075 C 
HETATM    3  C   UNK N   1     140.440 149.147 122.619  0.00  0.00    -0.043 C 
HETATM    4  C   UNK N   1     138.973 146.541 122.938  0.00  0.00     0.025 C 
HETATM    5  C   UNK N   1     140.879 148.044 123.617  0.00  0.00     0.009 C 
HETATM    6  C   UNK N   1     139.200 149.391 120.322  0.00  0.00     0.011 C 
HETATM    7  C   UNK N   1     139.717 147.198 124.121  0.00  0.00     0.002 C 
HETATM    8  C   UNK N   1     137.620 146.942 120.758  0.00  0.00     0.003 A 
HETATM    9  C   UNK N   1     138.784 148.551 119.116  0.00  0.00     0.040 C 
HETATM   10  C   UNK N   1     141.752 149.751 122.048  0.00  0.00     0.015 C 
HETATM   11  C   UNK N   1     139.687 150.288 123.342  0.00  0.00     0.015 C 
HETATM   12  C   UNK N   1     137.862 147.399 119.433  0.00  0.00    -0.047 A 
HETATM   13  C   UNK N   1     136.663 145.899 120.949  0.00  0.00     0.107 A 
HETATM   14  C   UNK N   1     137.223 146.786 118.350  0.00  0.00     0.018 A 
HETATM   15  C   UNK N   1     136.314 145.738 118.531  0.00  0.00    -0.018 A 
HETATM   16  C   UNK N   1     136.028 145.290 119.834  0.00  0.00     0.106 A 
ENDROOT
BRANCH   2  17
HETATM   17  C   UNK N   1     137.165 148.403 122.634  0.00  0.00     0.231 C 
HETATM   18  O   UNK N   1     136.645 149.307 121.999  0.00  0.00    -0.272 OA
HETATM   19  N   UNK N   1     136.641 148.064 123.857  0.00  0.00    -0.358 N 
HETATM   20  H   UNK N   1     137.039 147.301 124.411  0.00  0.00     0.162 HD
BRANCH  19  21
HETATM   21  C   UNK N   1     135.474 148.729 124.417  0.00  0.00     0.148 C 
BRANCH  21  22
HETATM   22  C   UNK N   1     134.349 147.735 124.736  0.00  0.00     0.183 C 
BRANCH  22  23
HETATM   23  O   UNK N   1     134.230 146.808 123.691  0.00  0.00    -0.399 OA
HETATM   24  H   UNK N   1     134.579 145.947 124.040  0.00  0.00     0.209 HD
ENDBRANCH  22  23
ENDBRANCH  21  22
ENDBRANCH  19  21
ENDBRANCH   2  17
BRANCH  13  25
HETATM   25  O   UNK N   1     136.358 145.510 122.207  0.00  0.00    -0.357 OA
HETATM   26  H   UNK N   1     135.591 145.794 122.715  0.00  0.00     0.218 HD
ENDBRANCH  13  25
BRANCH  16  27
HETATM   27  O   UNK N   1     135.139 144.280 119.987  0.00  0.00    -0.357 OA
HETATM   28  H   UNK N   1     135.108 143.478 119.455  0.00  0.00     0.218 HD
ENDBRANCH  16  27
BRANCH  15  29
HETATM   29  C   UNK N   1     135.625 145.111 117.322  0.00  0.00     0.013 C 
HETATM   30  C   UNK N   1     136.526 145.155 116.083  0.00  0.00     0.015 C 
HETATM   31  C   UNK N   1     134.278 145.794 117.050  0.00  0.00     0.015 C 
ENDBRANCH  15  29
TORSDOF 7
ENDMDL
MODEL 2
REMARK VINA RESULT:      -6.5     58.487     61.925
REMARK  7 active torsions:
REMARK  status: ('A' for Active; 'I' for Inactive)
REMARK    1  A    between atoms: O_2  and  C_19 
REMARK    2  A    between atoms: O_3  and  C_22 
REMARK    3  A    between atoms: O_4  and  C_27 
REMARK       I    between atoms: N_5  and  C_18 
REMARK    4  A    between atoms: N_5  and  C_24 
REMARK    5  A    between atoms: C_7  and  C_18 
REMARK    6  A    between atoms: C_21  and  C_23 
REMARK    7  A    between atoms: C_24  and  C_27 
ROOT
HETATM    1  C   UNK N   1     133.534 168.214 177.159  0.00  0.00     0.016 C 
HETATM    2  C   UNK N   1     133.592 168.097 178.756  0.00  0.00     0.075 C 
HETATM    3  C   UNK N   1     132.271 167.560 176.470  0.00  0.00    -0.043 C 
HETATM    4  C   UNK N   1     132.254 168.787 179.216  0.00  0.00     0.025 C 
HETATM    5  C   UNK N   1     131.001 168.172 177.118  0.00  0.00     0.009 C 
HETATM    6  C   UNK N   1     134.878 167.833 176.528  0.00  0.00     0.011 C 
HETATM    7  C   UNK N   1     131.005 168.086 178.638  0.00  0.00     0.002 C 
HETATM    8  C   UNK N   1     134.849 168.835 179.299  0.00  0.00     0.003 A 
HETATM    9  C   UNK N   1     135.945 168.833 176.967  0.00  0.00     0.040 C 
HETATM   10  C   UNK N   1     132.201 167.932 174.964  0.00  0.00     0.015 C 
HETATM   11  C   UNK N   1     132.258 166.017 176.563  0.00  0.00     0.015 C 
HETATM   12  C   UNK N   1     135.928 169.175 178.437  0.00  0.00    -0.047 A 
HETATM   13  C   UNK N   1     134.977 169.132 180.691  0.00  0.00     0.107 A 
HETATM   14  C   UNK N   1     137.048 169.845 178.942  0.00  0.00     0.018 A 
HETATM   15  C   UNK N   1     137.159 170.172 180.297  0.00  0.00    -0.018 A 
HETATM   16  C   UNK N   1     136.122 169.815 181.180  0.00  0.00     0.106 A 
ENDROOT
BRANCH   2  17
HETATM   17  C   UNK N   1     133.775 166.666 179.336  0.00  0.00     0.231 C 
HETATM   18  O   UNK N   1     134.701 165.985 178.926  0.00  0.00    -0.272 OA
HETATM   19  N   UNK N   1     132.997 166.182 180.358  0.00  0.00    -0.358 N 
HETATM   20  H   UNK N   1     132.222 166.731 180.741  0.00  0.00     0.162 HD
BRANCH  19  21
HETATM   21  C   UNK N   1     133.248 164.893 180.987  0.00  0.00     0.148 C 
BRANCH  21  22
HETATM   22  C   UNK N   1     132.012 163.984 180.937  0.00  0.00     0.183 C 
BRANCH  22  23
HETATM   23  O   UNK N   1     132.353 162.757 180.350  0.00  0.00    -0.399 OA
HETATM   24  H   UNK N   1     131.520 162.218 180.329  0.00  0.00     0.209 HD
ENDBRANCH  22  23
ENDBRANCH  21  22
ENDBRANCH  19  21
ENDBRANCH   2  17
BRANCH  13  25
HETATM   25  O   UNK N   1     133.999 168.741 181.538  0.00  0.00    -0.357 OA
HETATM   26  H   UNK N   1     133.117 168.449 181.285  0.00  0.00     0.218 HD
ENDBRANCH  13  25
BRANCH  16  27
HETATM   27  O   UNK N   1     136.253 170.134 182.490  0.00  0.00    -0.357 OA
HETATM   28  H   UNK N   1     136.594 169.549 183.176  0.00  0.00     0.218 HD
ENDBRANCH  16  27
BRANCH  15  29
HETATM   29  C   UNK N   1     138.407 170.886 180.810  0.00  0.00     0.013 C 
HETATM   30  C   UNK N   1     138.150 172.384 181.003  0.00  0.00     0.015 C 
HETATM   31  C   UNK N   1     139.594 170.647 179.868  0.00  0.00     0.015 C 
ENDBRANCH  15  29
TORSDOF 7
ENDMDL
MODEL 3
REMARK VINA RESULT:      -6.4     43.804     45.846
REMARK  7 active torsions:
REMARK  status: ('A' for Active; 'I' for Inactive)
REMARK    1  A    between atoms: O_2  and  C_19 
REMARK    2  A    between atoms: O_3  and  C_22 
REMARK    3  A    between atoms: O_4  and  C_27 
REMARK       I    between atoms: N_5  and  C_18 
REMARK    4  A    between atoms: N_5  and  C_24 
REMARK    5  A    between atoms: C_7  and  C_18 
REMARK    6  A    between atoms: C_21  and  C_23 
REMARK    7  A    between atoms: C_24  and  C_27 
ROOT
HETATM    1  C   UNK N   1     158.688 120.966 153.233  0.00  0.00     0.016 C 
HETATM    2  C   UNK N   1     157.975 122.365 153.548  0.00  0.00     0.075 C 
HETATM    3  C   UNK N   1     157.848 119.675 153.590  0.00  0.00    -0.043 C 
HETATM    4  C   UNK N   1     156.643 122.287 152.714  0.00  0.00     0.025 C 
HETATM    5  C   UNK N   1     156.481 119.777 152.866  0.00  0.00     0.009 C 
HETATM    6  C   UNK N   1     160.132 120.953 153.744  0.00  0.00     0.011 C 
HETATM    7  C   UNK N   1     155.760 121.092 153.133  0.00  0.00     0.002 C 
HETATM    8  C   UNK N   1     158.886 123.542 153.090  0.00  0.00     0.003 A 
HETATM    9  C   UNK N   1     160.947 121.999 152.987  0.00  0.00     0.040 C 
HETATM   10  C   UNK N   1     158.530 118.395 153.034  0.00  0.00     0.015 C 
HETATM   11  C   UNK N   1     157.662 119.472 155.111  0.00  0.00     0.015 C 
HETATM   12  C   UNK N   1     160.268 123.338 152.825  0.00  0.00    -0.047 A 
HETATM   13  C   UNK N   1     158.366 124.869 152.986  0.00  0.00     0.107 A 
HETATM   14  C   UNK N   1     161.070 124.405 152.408  0.00  0.00     0.018 A 
HETATM   15  C   UNK N   1     160.555 125.698 152.267  0.00  0.00    -0.018 A 
HETATM   16  C   UNK N   1     159.199 125.936 152.557  0.00  0.00     0.106 A 
ENDROOT
BRANCH   2  17
HETATM   17  C   UNK N   1     157.741 122.698 155.049  0.00  0.00     0.231 C 
HETATM   18  O   UNK N   1     158.701 122.693 155.804  0.00  0.00    -0.272 OA
HETATM   19  N   UNK N   1     156.518 123.091 155.533  0.00  0.00    -0.358 N 
HETATM   20  H   UNK N   1     155.694 123.124 154.926  0.00  0.00     0.162 HD
BRANCH  19  21
HETATM   21  C   UNK N   1     156.326 123.522 156.909  0.00  0.00     0.148 C 
BRANCH  21  22
HETATM   22  C   UNK N   1     156.348 125.052 157.035  0.00  0.00     0.183 C 
BRANCH  22  23
HETATM   23  O   UNK N   1     157.444 125.568 156.330  0.00  0.00    -0.399 OA
HETATM   24  H   UNK N   1     157.115 126.373 155.853  0.00  0.00     0.209 HD
ENDBRANCH  22  23
ENDBRANCH  21  22
ENDBRANCH  19  21
ENDBRANCH   2  17
BRANCH  13  25
HETATM   25  O   UNK N   1     157.075 125.096 153.315  0.00  0.00    -0.357 OA
HETATM   26  H   UNK N   1     156.308 124.697 152.893  0.00  0.00     0.218 HD
ENDBRANCH  13  25
BRANCH  16  27
HETATM   27  O   UNK N   1     158.723 127.198 152.422  0.00  0.00    -0.357 OA
HETATM   28  H   UNK N   1     158.127 127.498 151.728  0.00  0.00     0.218 HD
ENDBRANCH  16  27
BRANCH  15  29
HETATM   29  C   UNK N   1     161.470 126.839 151.827  0.00  0.00     0.013 C 
HETATM   30  C   UNK N   1     162.614 126.325 150.946  0.00  0.00     0.015 C 
HETATM   31  C   UNK N   1     162.009 127.602 153.044  0.00  0.00     0.015 C 
ENDBRANCH  15  29
TORSDOF 7
ENDMDL
MODEL 4
REMARK VINA RESULT:      -6.3     58.549     61.724
REMARK  7 active torsions:
REMARK  status: ('A' for Active; 'I' for Inactive)
REMARK    1  A    between atoms: O_2  and  C_19 
REMARK    2  A    between atoms: O_3  and  C_22 
REMARK    3  A    between atoms: O_4  and  C_27 
REMARK       I    between atoms: N_5  and  C_18 
REMARK    4  A    between atoms: N_5  and  C_24 
REMARK    5  A    between atoms: C_7  and  C_18 
REMARK    6  A    between atoms: C_21  and  C_23 
REMARK    7  A    between atoms: C_24  and  C_27 
ROOT
HETATM    1  C   UNK N   1     137.628 168.722 179.746  0.00  0.00     0.016 C 
HETATM    2  C   UNK N   1     136.336 167.847 180.108  0.00  0.00     0.075 C 
HETATM    3  C   UNK N   1     138.559 169.104 180.964  0.00  0.00    -0.043 C 
HETATM    4  C   UNK N   1     136.947 166.571 180.797  0.00  0.00     0.025 C 
HETATM    5  C   UNK N   1     138.962 167.793 181.689  0.00  0.00     0.009 C 
HETATM    6  C   UNK N   1     137.262 169.892 178.827  0.00  0.00     0.011 C 
HETATM    7  C   UNK N   1     137.768 166.922 182.057  0.00  0.00     0.002 C 
HETATM    8  C   UNK N   1     135.550 167.494 178.812  0.00  0.00     0.003 A 
HETATM    9  C   UNK N   1     136.756 169.350 177.492  0.00  0.00     0.040 C 
HETATM   10  C   UNK N   1     139.887 169.744 180.473  0.00  0.00     0.015 C 
HETATM   11  C   UNK N   1     137.902 170.104 181.943  0.00  0.00     0.015 C 
HETATM   12  C   UNK N   1     135.777 168.207 177.602  0.00  0.00    -0.047 A 
HETATM   13  C   UNK N   1     134.537 166.487 178.824  0.00  0.00     0.107 A 
HETATM   14  C   UNK N   1     135.066 167.872 176.444  0.00  0.00     0.018 A 
HETATM   15  C   UNK N   1     134.101 166.859 176.443  0.00  0.00    -0.018 A 
HETATM   16  C   UNK N   1     133.831 166.162 177.635  0.00  0.00     0.106 A 
ENDROOT
BRANCH   2  17
HETATM   17  C   UNK N   1     135.248 168.548 180.970  0.00  0.00     0.231 C 
HETATM   18  O   UNK N   1     134.874 168.001 181.995  0.00  0.00    -0.272 OA
HETATM   19  N   UNK N   1     134.767 169.799 180.673  0.00  0.00    -0.358 N 
HETATM   20  H   UNK N   1     135.070 170.297 179.831  0.00  0.00     0.162 HD
BRANCH  19  21
HETATM   21  C   UNK N   1     133.842 170.507 181.546  0.00  0.00     0.148 C 
BRANCH  21  22
HETATM   22  C   UNK N   1     134.420 171.849 182.019  0.00  0.00     0.183 C 
BRANCH  22  23
HETATM   23  O   UNK N   1     133.422 172.832 181.975  0.00  0.00    -0.399 OA
HETATM   24  H   UNK N   1     133.892 173.703 181.893  0.00  0.00     0.209 HD
ENDBRANCH  22  23
ENDBRANCH  21  22
ENDBRANCH  19  21
ENDBRANCH   2  17
BRANCH  13  25
HETATM   25  O   UNK N   1     134.251 165.858 179.985  0.00  0.00    -0.357 OA
HETATM   26  H   UNK N   1     133.368 165.683 180.328  0.00  0.00     0.218 HD
ENDBRANCH  13  25
BRANCH  16  27
HETATM   27  O   UNK N   1     132.887 165.191 177.614  0.00  0.00    -0.357 OA
HETATM   28  H   UNK N   1     132.344 164.956 176.853  0.00  0.00     0.218 HD
ENDBRANCH  16  27
BRANCH  15  29
HETATM   29  C   UNK N   1     133.335 166.539 175.162  0.00  0.00     0.013 C 
HETATM   30  C   UNK N   1     133.756 165.181 174.588  0.00  0.00     0.015 C 
HETATM   31  C   UNK N   1     133.517 167.656 174.127  0.00  0.00     0.015 C 
ENDBRANCH  15  29
TORSDOF 7
ENDMDL
MODEL 5
REMARK VINA RESULT:      -6.0     71.852     75.123
REMARK  7 active torsions:
REMARK  status: ('A' for Active; 'I' for Inactive)
REMARK    1  A    between atoms: O_2  and  C_19 
REMARK    2  A    between atoms: O_3  and  C_22 
REMARK    3  A    between atoms: O_4  and  C_27 
REMARK       I    between atoms: N_5  and  C_18 
REMARK    4  A    between atoms: N_5  and  C_24 
REMARK    5  A    between atoms: C_7  and  C_18 
REMARK    6  A    between atoms: C_21  and  C_23 
REMARK    7  A    between atoms: C_24  and  C_27 
ROOT
HETATM    1  C   UNK N   1     168.033 154.855 186.828  0.00  0.00     0.016 C 
HETATM    2  C   UNK N   1     167.408 154.787 188.302  0.00  0.00     0.075 C 
HETATM    3  C   UNK N   1     167.658 153.653 185.871  0.00  0.00    -0.043 C 
HETATM    4  C   UNK N   1     165.858 154.717 188.033  0.00  0.00     0.025 C 
HETATM    5  C   UNK N   1     166.112 153.549 185.814  0.00  0.00     0.009 C 
HETATM    6  C   UNK N   1     169.525 155.195 186.876  0.00  0.00     0.011 C 
HETATM    7  C   UNK N   1     165.466 153.483 187.192  0.00  0.00     0.002 C 
HETATM    8  C   UNK N   1     167.806 156.058 189.107  0.00  0.00     0.003 A 
HETATM    9  C   UNK N   1     169.708 156.597 187.454  0.00  0.00     0.040 C 
HETATM   10  C   UNK N   1     168.120 153.935 184.415  0.00  0.00     0.015 C 
HETATM   11  C   UNK N   1     168.293 152.311 186.302  0.00  0.00     0.015 C 
HETATM   12  C   UNK N   1     168.878 156.890 188.681  0.00  0.00    -0.047 A 
HETATM   13  C   UNK N   1     167.143 156.384 190.330  0.00  0.00     0.107 A 
HETATM   14  C   UNK N   1     169.217 158.032 189.414  0.00  0.00     0.018 A 
HETATM   15  C   UNK N   1     168.544 158.375 190.591  0.00  0.00    -0.018 A 
HETATM   16  C   UNK N   1     167.503 157.550 191.056  0.00  0.00     0.106 A 
ENDROOT
BRANCH   2  17
HETATM   17  C   UNK N   1     167.924 153.643 189.219  0.00  0.00     0.231 C 
HETATM   18  O   UNK N   1     167.132 152.794 189.595  0.00  0.00    -0.272 OA
HETATM   19  N   UNK N   1     169.252 153.499 189.538  0.00  0.00    -0.358 N 
HETATM   20  H   UNK N   1     169.949 154.181 189.227  0.00  0.00     0.162 HD
BRANCH  19  21
HETATM   21  C   UNK N   1     169.754 152.359 190.292  0.00  0.00     0.148 C 
BRANCH  21  22
HETATM   22  C   UNK N   1     169.745 152.627 191.803  0.00  0.00     0.183 C 
BRANCH  22  23
HETATM   23  O   UNK N   1     168.477 152.340 192.326  0.00  0.00    -0.399 OA
HETATM   24  H   UNK N   1     167.828 152.519 191.597  0.00  0.00     0.209 HD
ENDBRANCH  22  23
ENDBRANCH  21  22
ENDBRANCH  19  21
ENDBRANCH   2  17
BRANCH  13  25
HETATM   25  O   UNK N   1     166.178 155.559 190.795  0.00  0.00    -0.357 OA
HETATM   26  H   UNK N   1     166.179 155.116 191.649  0.00  0.00     0.218 HD
ENDBRANCH  13  25
BRANCH  16  27
HETATM   27  O   UNK N   1     166.870 157.897 192.203  0.00  0.00    -0.357 OA
HETATM   28  H   UNK N   1     167.303 158.167 193.020  0.00  0.00     0.218 HD
ENDBRANCH  16  27
BRANCH  15  29
HETATM   29  C   UNK N   1     168.959 159.620 191.371  0.00  0.00     0.013 C 
HETATM   30  C   UNK N   1     168.285 160.877 190.811  0.00  0.00     0.015 C 
HETATM   31  C   UNK N   1     170.486 159.770 191.379  0.00  0.00     0.015 C 
ENDBRANCH  15  29
TORSDOF 7
ENDMDL
MODEL 6
REMARK VINA RESULT:      -5.9     44.021     46.103
REMARK  7 active torsions:
REMARK  status: ('A' for Active; 'I' for Inactive)
REMARK    1  A    between atoms: O_2  and  C_19 
REMARK    2  A    between atoms: O_3  and  C_22 
REMARK    3  A    between atoms: O_4  and  C_27 
REMARK       I    between atoms: N_5  and  C_18 
REMARK    4  A    between atoms: N_5  and  C_24 
REMARK    5  A    between atoms: C_7  and  C_18 
REMARK    6  A    between atoms: C_21  and  C_23 
REMARK    7  A    between atoms: C_24  and  C_27 
ROOT
HETATM    1  C   UNK N   1     159.270 127.453 158.396  0.00  0.00     0.016 C 
HETATM    2  C   UNK N   1     159.543 128.033 156.928  0.00  0.00     0.075 C 
HETATM    3  C   UNK N   1     159.526 128.459 159.588  0.00  0.00    -0.043 C 
HETATM    4  C   UNK N   1     158.589 129.283 156.852  0.00  0.00     0.025 C 
HETATM    5  C   UNK N   1     158.682 129.734 159.329  0.00  0.00     0.009 C 
HETATM    6  C   UNK N   1     159.911 126.073 158.573  0.00  0.00     0.011 C 
HETATM    7  C   UNK N   1     158.904 130.327 157.945  0.00  0.00     0.002 C 
HETATM    8  C   UNK N   1     159.190 126.960 155.858  0.00  0.00     0.003 A 
HETATM    9  C   UNK N   1     159.250 125.081 157.619  0.00  0.00     0.040 C 
HETATM   10  C   UNK N   1     159.013 127.874 160.932  0.00  0.00     0.015 C 
HETATM   11  C   UNK N   1     161.020 128.807 159.780  0.00  0.00     0.015 C 
HETATM   12  C   UNK N   1     159.049 125.590 156.212  0.00  0.00    -0.047 A 
HETATM   13  C   UNK N   1     159.062 127.318 154.480  0.00  0.00     0.107 A 
HETATM   14  C   UNK N   1     158.726 124.640 155.237  0.00  0.00     0.018 A 
HETATM   15  C   UNK N   1     158.561 124.994 153.894  0.00  0.00    -0.018 A 
HETATM   16  C   UNK N   1     158.731 126.337 153.509  0.00  0.00     0.106 A 
ENDROOT
BRANCH   2  17
HETATM   17  C   UNK N   1     161.021 128.368 156.583  0.00  0.00     0.231 C 
HETATM   18  O   UNK N   1     161.835 127.458 156.557  0.00  0.00    -0.272 OA
HETATM   19  N   UNK N   1     161.423 129.627 156.211  0.00  0.00    -0.358 N 
HETATM   20  H   UNK N   1     160.766 130.412 156.203  0.00  0.00     0.162 HD
BRANCH  19  21
HETATM   21  C   UNK N   1     162.779 129.914 155.766  0.00  0.00     0.148 C 
BRANCH  21  22
HETATM   22  C   UNK N   1     162.881 129.951 154.235  0.00  0.00     0.183 C 
BRANCH  22  23
HETATM   23  O   UNK N   1     162.224 128.838 153.692  0.00  0.00    -0.399 OA
HETATM   24  H   UNK N   1     161.982 129.084 152.761  0.00  0.00     0.209 HD
ENDBRANCH  22  23
ENDBRANCH  21  22
ENDBRANCH  19  21
ENDBRANCH   2  17
BRANCH  13  25
HETATM   25  O   UNK N   1     159.276 128.602 154.113  0.00  0.00    -0.357 OA
HETATM   26  H   UNK N   1     159.387 128.918 153.211  0.00  0.00     0.218 HD
ENDBRANCH  13  25
BRANCH  16  27
HETATM   27  O   UNK N   1     158.575 126.657 152.201  0.00  0.00    -0.357 OA
HETATM   28  H   UNK N   1     157.884 126.317 151.622  0.00  0.00     0.218 HD
ENDBRANCH  16  27
BRANCH  15  29
HETATM   29  C   UNK N   1     158.227 123.923 152.860  0.00  0.00     0.013 C 
HETATM   30  C   UNK N   1     156.829 123.340 153.095  0.00  0.00     0.015 C 
HETATM   31  C   UNK N   1     159.293 122.819 152.858  0.00  0.00     0.015 C 
ENDBRANCH  15  29
TORSDOF 7
ENDMDL
MODEL 7
REMARK VINA RESULT:      -5.9     57.988     61.287
REMARK  7 active torsions:
REMARK  status: ('A' for Active; 'I' for Inactive)
REMARK    1  A    between atoms: O_2  and  C_19 
REMARK    2  A    between atoms: O_3  and  C_22 
REMARK    3  A    between atoms: O_4  and  C_27 
REMARK       I    between atoms: N_5  and  C_18 
REMARK    4  A    between atoms: N_5  and  C_24 
REMARK    5  A    between atoms: C_7  and  C_18 
REMARK    6  A    between atoms: C_21  and  C_23 
REMARK    7  A    between atoms: C_24  and  C_27 
ROOT
HETATM    1  C   UNK N   1     128.572 165.711 178.665  0.00  0.00     0.016 C 
HETATM    2  C   UNK N   1     129.692 166.635 179.343  0.00  0.00     0.075 C 
HETATM    3  C   UNK N   1     127.208 165.599 179.456  0.00  0.00    -0.043 C 
HETATM    4  C   UNK N   1     128.977 168.031 179.474  0.00  0.00     0.025 C 
HETATM    5  C   UNK N   1     126.673 167.034 179.697  0.00  0.00     0.009 C 
HETATM    6  C   UNK N   1     129.161 164.373 178.209  0.00  0.00     0.011 C 
HETATM    7  C   UNK N   1     127.701 167.955 180.341  0.00  0.00     0.002 C 
HETATM    8  C   UNK N   1     130.950 166.704 178.429  0.00  0.00     0.003 A 
HETATM    9  C   UNK N   1     130.195 164.621 177.113  0.00  0.00     0.040 C 
HETATM   10  C   UNK N   1     126.127 164.879 178.605  0.00  0.00     0.015 C 
HETATM   11  C   UNK N   1     127.338 164.820 180.786  0.00  0.00     0.015 C 
HETATM   12  C   UNK N   1     131.152 165.755 177.388  0.00  0.00    -0.047 A 
HETATM   13  C   UNK N   1     131.963 167.685 178.655  0.00  0.00     0.107 A 
HETATM   14  C   UNK N   1     132.285 165.837 176.572  0.00  0.00     0.018 A 
HETATM   15  C   UNK N   1     133.260 166.821 176.766  0.00  0.00    -0.018 A 
HETATM   16  C   UNK N   1     133.104 167.750 177.812  0.00  0.00     0.106 A 
ENDROOT
BRANCH   2  17
HETATM   17  C   UNK N   1     130.290 166.122 180.684  0.00  0.00     0.231 C 
HETATM   18  O   UNK N   1     130.132 166.798 181.689  0.00  0.00    -0.272 OA
HETATM   19  N   UNK N   1     130.899 164.897 180.798  0.00  0.00    -0.358 N 
HETATM   20  H   UNK N   1     131.034 164.295 179.981  0.00  0.00     0.162 HD
BRANCH  19  21
HETATM   21  C   UNK N   1     131.346 164.364 182.075  0.00  0.00     0.148 C 
BRANCH  21  22
HETATM   22  C   UNK N   1     132.790 164.779 182.392  0.00  0.00     0.183 C 
BRANCH  22  23
HETATM   23  O   UNK N   1     133.627 163.656 182.332  0.00  0.00    -0.399 OA
HETATM   24  H   UNK N   1     134.555 164.002 182.279  0.00  0.00     0.209 HD
ENDBRANCH  22  23
ENDBRANCH  21  22
ENDBRANCH  19  21
ENDBRANCH   2  17
BRANCH  13  25
HETATM   25  O   UNK N   1     131.829 168.541 179.692  0.00  0.00    -0.357 OA
HETATM   26  H   UNK N   1     132.549 168.955 180.179  0.00  0.00     0.218 HD
ENDBRANCH  13  25
BRANCH  16  27
HETATM   27  O   UNK N   1     134.064 168.689 177.987  0.00  0.00    -0.357 OA
HETATM   28  H   UNK N   1     134.006 169.608 177.702  0.00  0.00     0.218 HD
ENDBRANCH  16  27
BRANCH  15  29
HETATM   29  C   UNK N   1     134.491 166.862 175.864  0.00  0.00     0.013 C 
HETATM   30  C   UNK N   1     134.203 167.622 174.565  0.00  0.00     0.015 C 
HETATM   31  C   UNK N   1     134.998 165.443 175.573  0.00  0.00     0.015 C 
ENDBRANCH  15  29
TORSDOF 7
ENDMDL
MODEL 8
REMARK VINA RESULT:      -5.9     34.746     36.676
REMARK  7 active torsions:
REMARK  status: ('A' for Active; 'I' for Inactive)
REMARK    1  A    between atoms: O_2  and  C_19 
REMARK    2  A    between atoms: O_3  and  C_22 
REMARK    3  A    between atoms: O_4  and  C_27 
REMARK       I    between atoms: N_5  and  C_18 
REMARK    4  A    between atoms: N_5  and  C_24 
REMARK    5  A    between atoms: C_7  and  C_18 
REMARK    6  A    between atoms: C_21  and  C_23 
REMARK    7  A    between atoms: C_24  and  C_27 
ROOT
HETATM    1  C   UNK N   1     165.751 155.202 140.135  0.00  0.00     0.016 C 
HETATM    2  C   UNK N   1     166.168 156.302 141.222  0.00  0.00     0.075 C 
HETATM    3  C   UNK N   1     166.081 153.704 140.517  0.00  0.00    -0.043 C 
HETATM    4  C   UNK N   1     165.392 155.846 142.513  0.00  0.00     0.025 C 
HETATM    5  C   UNK N   1     165.425 153.404 141.890  0.00  0.00     0.009 C 
HETATM    6  C   UNK N   1     166.196 155.618 138.729  0.00  0.00     0.011 C 
HETATM    7  C   UNK N   1     165.790 154.423 142.962  0.00  0.00     0.002 C 
HETATM    8  C   UNK N   1     165.729 157.717 140.743  0.00  0.00     0.003 A 
HETATM    9  C   UNK N   1     165.457 156.890 138.318  0.00  0.00     0.040 C 
HETATM   10  C   UNK N   1     165.431 152.716 139.510  0.00  0.00     0.015 C 
HETATM   11  C   UNK N   1     167.596 153.402 140.543  0.00  0.00     0.015 C 
HETATM   12  C   UNK N   1     165.392 157.958 139.383  0.00  0.00    -0.047 A 
HETATM   13  C   UNK N   1     165.716 158.822 141.649  0.00  0.00     0.107 A 
HETATM   14  C   UNK N   1     164.994 159.235 138.972  0.00  0.00     0.018 A 
HETATM   15  C   UNK N   1     164.942 160.310 139.865  0.00  0.00    -0.018 A 
HETATM   16  C   UNK N   1     165.305 160.108 141.209  0.00  0.00     0.106 A 
ENDROOT
BRANCH   2  17
HETATM   17  C   UNK N   1     167.693 156.495 141.458  0.00  0.00     0.231 C 
HETATM   18  O   UNK N   1     168.399 156.786 140.506  0.00  0.00    -0.272 OA
HETATM   19  N   UNK N   1     168.255 156.448 142.710  0.00  0.00    -0.358 N 
HETATM   20  H   UNK N   1     167.692 156.225 143.536  0.00  0.00     0.162 HD
BRANCH  19  21
HETATM   21  C   UNK N   1     169.658 156.752 142.948  0.00  0.00     0.148 C 
BRANCH  21  22
HETATM   22  C   UNK N   1     169.833 158.048 143.751  0.00  0.00     0.183 C 
BRANCH  22  23
HETATM   23  O   UNK N   1     168.608 158.416 144.325  0.00  0.00    -0.399 OA
HETATM   24  H   UNK N   1     167.907 158.176 143.664  0.00  0.00     0.209 HD
ENDBRANCH  22  23
ENDBRANCH  21  22
ENDBRANCH  19  21
ENDBRANCH   2  17
BRANCH  13  25
HETATM   25  O   UNK N   1     166.114 158.629 142.926  0.00  0.00    -0.357 OA
HETATM   26  H   UNK N   1     165.678 158.065 143.573  0.00  0.00     0.218 HD
ENDBRANCH  13  25
BRANCH  16  27
HETATM   27  O   UNK N   1     165.255 161.165 142.055  0.00  0.00    -0.357 OA
HETATM   28  H   UNK N   1     165.999 161.514 142.558  0.00  0.00     0.218 HD
ENDBRANCH  16  27
BRANCH  15  29
HETATM   29  C   UNK N   1     164.519 161.691 139.370  0.00  0.00     0.013 C 
HETATM   30  C   UNK N   1     163.236 161.614 138.535  0.00  0.00     0.015 C 
HETATM   31  C   UNK N   1     165.654 162.355 138.579  0.00  0.00     0.015 C 
ENDBRANCH  15  29
TORSDOF 7
ENDMDL
MODEL 9
REMARK VINA RESULT:      -5.8     28.679     30.591
REMARK  7 active torsions:
REMARK  status: ('A' for Active; 'I' for Inactive)
REMARK    1  A    between atoms: O_2  and  C_19 
REMARK    2  A    between atoms: O_3  and  C_22 
REMARK    3  A    between atoms: O_4  and  C_27 
REMARK       I    between atoms: N_5  and  C_18 
REMARK    4  A    between atoms: N_5  and  C_24 
REMARK    5  A    between atoms: C_7  and  C_18 
REMARK    6  A    between atoms: C_21  and  C_23 
REMARK    7  A    between atoms: C_24  and  C_27 
ROOT
HETATM    1  C   UNK N   1     163.427 128.677 121.961  0.00  0.00     0.016 C 
HETATM    2  C   UNK N   1     162.849 129.583 123.149  0.00  0.00     0.075 C 
HETATM    3  C   UNK N   1     164.730 129.226 121.253  0.00  0.00    -0.043 C 
HETATM    4  C   UNK N   1     164.060 129.679 124.150  0.00  0.00     0.025 C 
HETATM    5  C   UNK N   1     165.805 129.462 122.345  0.00  0.00     0.009 C 
HETATM    6  C   UNK N   1     162.312 128.243 121.004  0.00  0.00     0.011 C 
HETATM    7  C   UNK N   1     165.306 130.319 123.501  0.00  0.00     0.002 C 
HETATM    8  C   UNK N   1     161.611 128.892 123.791  0.00  0.00     0.003 A 
HETATM    9  C   UNK N   1     161.324 127.348 121.748  0.00  0.00     0.040 C 
HETATM   10  C   UNK N   1     165.329 128.168 120.287  0.00  0.00     0.015 C 
HETATM   11  C   UNK N   1     164.479 130.510 120.429  0.00  0.00     0.015 C 
HETATM   12  C   UNK N   1     160.926 127.843 123.117  0.00  0.00    -0.047 A 
HETATM   13  C   UNK N   1     161.095 129.340 125.046  0.00  0.00     0.107 A 
HETATM   14  C   UNK N   1     159.818 127.230 123.712  0.00  0.00     0.018 A 
HETATM   15  C   UNK N   1     159.335 127.640 124.959  0.00  0.00    -0.018 A 
HETATM   16  C   UNK N   1     159.971 128.699 125.632  0.00  0.00     0.106 A 
ENDROOT
BRANCH   2  17
HETATM   17  C   UNK N   1     162.277 130.970 122.743  0.00  0.00     0.231 C 
HETATM   18  O   UNK N   1     162.720 131.967 123.291  0.00  0.00    -0.272 OA
HETATM   19  N   UNK N   1     161.366 131.121 121.726  0.00  0.00    -0.358 N 
HETATM   20  H   UNK N   1     160.984 130.310 121.232  0.00  0.00     0.162 HD
BRANCH  19  21
HETATM   21  C   UNK N   1     160.925 132.428 121.263  0.00  0.00     0.148 C 
BRANCH  21  22
HETATM   22  C   UNK N   1     160.890 132.507 119.730  0.00  0.00     0.183 C 
BRANCH  22  23
HETATM   23  O   UNK N   1     160.676 133.834 119.331  0.00  0.00    -0.399 OA
HETATM   24  H   UNK N   1     160.110 133.792 118.517  0.00  0.00     0.209 HD
ENDBRANCH  22  23
ENDBRANCH  21  22
ENDBRANCH  19  21
ENDBRANCH   2  17
BRANCH  13  25
HETATM   25  O   UNK N   1     161.683 130.390 125.661  0.00  0.00    -0.357 OA
HETATM   26  H   UNK N   1     161.236 131.185 125.968  0.00  0.00     0.218 HD
ENDBRANCH  13  25
BRANCH  16  27
HETATM   27  O   UNK N   1     159.481 129.085 126.835  0.00  0.00    -0.357 OA
HETATM   28  H   UNK N   1     159.815 129.818 127.365  0.00  0.00     0.218 HD
ENDBRANCH  16  27
BRANCH  15  29
HETATM   29  C   UNK N   1     158.112 126.955 125.564  0.00  0.00     0.013 C 
HETATM   30  C   UNK N   1     158.499 125.657 126.281  0.00  0.00     0.015 C 
HETATM   31  C   UNK N   1     157.048 126.696 124.490  0.00  0.00     0.015 C 
ENDBRANCH  15  29
TORSDOF 7
ENDMDL
