MODEL 1
REMARK VINA RESULT:      -7.0      0.000      0.000
REMARK  5 active torsions:
REMARK  status: ('A' for Active; 'I' for Inactive)
REMARK    1  A    between atoms: O_2  and  C_19 
REMARK    2  A    between atoms: O_3  and  C_22 
REMARK    3  A    between atoms: N_4  and  N_5 
REMARK       I    between atoms: N_4  and  C_18 
REMARK    4  A    between atoms: C_7  and  C_18 
REMARK    5  A    between atoms: C_21  and  C_23 
ROOT
HETATM    1  C   UNK N   1     137.664 169.366 179.537  0.00  0.00     0.016 C 
HETATM    2  C   UNK N   1     136.484 168.414 179.971  0.00  0.00     0.077 C 
HETATM    3  C   UNK N   1     138.463 170.004 180.760  0.00  0.00    -0.043 C 
HETATM    4  C   UNK N   1     137.205 167.229 180.757  0.00  0.00     0.025 C 
HETATM    5  C   UNK N   1     138.510 169.012 181.970  0.00  0.00     0.009 C 
HETATM    6  C   UNK N   1     137.257 170.366 178.463  0.00  0.00     0.011 C 
HETATM    7  C   UNK N   1     138.538 167.575 181.472  0.00  0.00     0.002 C 
HETATM    8  C   UNK N   1     135.695 167.866 178.745  0.00  0.00     0.003 A 
HETATM    9  C   UNK N   1     136.822 169.616 177.207  0.00  0.00     0.040 C 
HETATM   10  C   UNK N   1     137.870 171.340 181.265  0.00  0.00     0.015 C 
HETATM   11  C   UNK N   1     139.918 170.291 180.297  0.00  0.00     0.015 C 
HETATM   12  C   UNK N   1     135.894 168.445 177.455  0.00  0.00    -0.047 A 
HETATM   13  C   UNK N   1     134.723 166.817 178.865  0.00  0.00     0.107 A 
HETATM   14  C   UNK N   1     135.192 167.957 176.347  0.00  0.00     0.018 A 
HETATM   15  C   UNK N   1     134.271 166.912 176.466  0.00  0.00    -0.018 A 
HETATM   16  C   UNK N   1     134.044 166.340 177.727  0.00  0.00     0.106 A 
ENDROOT
BRANCH   2  17
HETATM   17  C   UNK N   1     135.416 169.135 180.824  0.00  0.00     0.245 C 
HETATM   18  O   UNK N   1     135.133 168.716 181.939  0.00  0.00    -0.271 OA
HETATM   19  N   UNK N   1     134.698 170.176 180.309  0.00  0.00    -0.293 N 
HETATM   20  H   UNK N   1     134.862 170.501 179.346  0.00  0.00     0.183 HD
BRANCH  19  21
HETATM   21  N   UNK N   1     133.669 170.756 181.036  0.00  0.00    -0.247 NA
HETATM   22  H   UNK N   1     133.695 171.786 180.850  0.00  0.00     0.143 HD
HETATM   23  H   UNK N   1     133.870 170.600 182.050  0.00  0.00     0.143 HD
ENDBRANCH  19  21
ENDBRANCH   2  17
BRANCH  13  24
HETATM   24  O   UNK N   1     134.389 166.264 180.052  0.00  0.00    -0.357 OA
HETATM   25  H   UNK N   1     134.968 165.723 180.591  0.00  0.00     0.218 HD
ENDBRANCH  13  24
BRANCH  16  26
HETATM   26  O   UNK N   1     133.141 165.339 177.849  0.00  0.00    -0.357 OA
HETATM   27  H   UNK N   1     132.357 165.263 177.285  0.00  0.00     0.218 HD
ENDBRANCH  16  26
BRANCH  15  28
HETATM   28  C   UNK N   1     133.488 166.438 175.246  0.00  0.00     0.013 C 
HETATM   29  C   UNK N   1     133.979 165.072 174.753  0.00  0.00     0.015 C 
HETATM   30  C   UNK N   1     133.560 167.487 174.128  0.00  0.00     0.015 C 
ENDBRANCH  15  28
TORSDOF 5
ENDMDL
MODEL 2
REMARK VINA RESULT:      -7.0     28.393     30.949
REMARK  5 active torsions:
REMARK  status: ('A' for Active; 'I' for Inactive)
REMARK    1  A    between atoms: O_2  and  C_19 
REMARK    2  A    between atoms: O_3  and  C_22 
REMARK    3  A    between atoms: N_4  and  N_5 
REMARK       I    between atoms: N_4  and  C_18 
REMARK    4  A    between atoms: C_7  and  C_18 
REMARK    5  A    between atoms: C_21  and  C_23 
ROOT
HETATM    1  C   UNK N   1     151.193 158.256 152.147  0.00  0.00     0.016 C 
HETATM    2  C   UNK N   1     151.670 158.053 153.637  0.00  0.00     0.077 C 
HETATM    3  C   UNK N   1     152.187 157.644 151.062  0.00  0.00    -0.043 C 
HETATM    4  C   UNK N   1     151.692 156.471 153.829  0.00  0.00     0.025 C 
HETATM    5  C   UNK N   1     152.885 156.356 151.612  0.00  0.00     0.009 C 
HETATM    6  C   UNK N   1     150.745 159.681 151.855  0.00  0.00     0.011 C 
HETATM    7  C   UNK N   1     151.953 155.617 152.561  0.00  0.00     0.002 C 
HETATM    8  C   UNK N   1     150.699 158.721 154.656  0.00  0.00     0.003 A 
HETATM    9  C   UNK N   1     149.553 160.033 152.742  0.00  0.00     0.040 C 
HETATM   10  C   UNK N   1     153.293 158.624 150.604  0.00  0.00     0.015 C 
HETATM   11  C   UNK N   1     151.360 157.261 149.803  0.00  0.00     0.015 C 
HETATM   12  C   UNK N   1     149.704 159.635 154.195  0.00  0.00    -0.047 A 
HETATM   13  C   UNK N   1     150.796 158.493 156.069  0.00  0.00     0.107 A 
HETATM   14  C   UNK N   1     148.825 160.237 155.104  0.00  0.00     0.018 A 
HETATM   15  C   UNK N   1     148.904 159.983 156.477  0.00  0.00    -0.018 A 
HETATM   16  C   UNK N   1     149.888 159.105 156.955  0.00  0.00     0.106 A 
ENDROOT
BRANCH   2  17
HETATM   17  C   UNK N   1     153.039 158.710 153.921  0.00  0.00     0.245 C 
HETATM   18  O   UNK N   1     153.240 159.876 153.605  0.00  0.00    -0.271 OA
HETATM   19  N   UNK N   1     154.074 157.976 154.423  0.00  0.00    -0.293 N 
HETATM   20  H   UNK N   1     153.956 156.973 154.626  0.00  0.00     0.183 HD
BRANCH  19  21
HETATM   21  N   UNK N   1     155.332 158.538 154.581  0.00  0.00    -0.247 NA
HETATM   22  H   UNK N   1     156.009 157.950 154.041  0.00  0.00     0.143 HD
HETATM   23  H   UNK N   1     155.581 158.479 155.594  0.00  0.00     0.143 HD
ENDBRANCH  19  21
ENDBRANCH   2  17
BRANCH  13  24
HETATM   24  O   UNK N   1     151.760 157.721 156.620  0.00  0.00    -0.357 OA
HETATM   25  H   UNK N   1     151.902 156.794 156.428  0.00  0.00     0.218 HD
ENDBRANCH  13  24
BRANCH  16  26
HETATM   26  O   UNK N   1     149.977 158.869 158.285  0.00  0.00    -0.357 OA
HETATM   27  H   UNK N   1     150.794 158.991 158.789  0.00  0.00     0.218 HD
ENDBRANCH  16  26
BRANCH  15  28
HETATM   28  C   UNK N   1     147.962 160.696 157.443  0.00  0.00     0.013 C 
HETATM   29  C   UNK N   1     146.552 160.836 156.859  0.00  0.00     0.015 C 
HETATM   30  C   UNK N   1     148.537 162.064 157.833  0.00  0.00     0.015 C 
ENDBRANCH  15  28
TORSDOF 5
ENDMDL
MODEL 3
REMARK VINA RESULT:      -6.9     54.911     56.801
REMARK  5 active torsions:
REMARK  status: ('A' for Active; 'I' for Inactive)
REMARK    1  A    between atoms: O_2  and  C_19 
REMARK    2  A    between atoms: O_3  and  C_22 
REMARK    3  A    between atoms: N_4  and  N_5 
REMARK       I    between atoms: N_4  and  C_18 
REMARK    4  A    between atoms: C_7  and  C_18 
REMARK    5  A    between atoms: C_21  and  C_23 
ROOT
HETATM    1  C   UNK N   1     158.419 121.129 153.359  0.00  0.00     0.016 C 
HETATM    2  C   UNK N   1     157.799 122.565 153.562  0.00  0.00     0.077 C 
HETATM    3  C   UNK N   1     157.492 119.945 153.885  0.00  0.00    -0.043 C 
HETATM    4  C   UNK N   1     156.474 122.550 152.676  0.00  0.00     0.025 C 
HETATM    5  C   UNK N   1     155.979 120.302 153.703  0.00  0.00     0.009 C 
HETATM    6  C   UNK N   1     159.870 121.039 153.810  0.00  0.00     0.011 C 
HETATM    7  C   UNK N   1     155.787 121.174 152.472  0.00  0.00     0.002 C 
HETATM    8  C   UNK N   1     158.767 123.691 153.090  0.00  0.00     0.003 A 
HETATM    9  C   UNK N   1     160.722 121.999 152.985  0.00  0.00     0.040 C 
HETATM   10  C   UNK N   1     157.719 119.587 155.372  0.00  0.00     0.015 C 
HETATM   11  C   UNK N   1     157.804 118.672 153.050  0.00  0.00     0.015 C 
HETATM   12  C   UNK N   1     160.133 123.383 152.811  0.00  0.00    -0.047 A 
HETATM   13  C   UNK N   1     158.352 125.059 152.971  0.00  0.00     0.107 A 
HETATM   14  C   UNK N   1     161.009 124.387 152.383  0.00  0.00     0.018 A 
HETATM   15  C   UNK N   1     160.588 125.712 152.236  0.00  0.00    -0.018 A 
HETATM   16  C   UNK N   1     159.255 126.043 152.525  0.00  0.00     0.106 A 
ENDROOT
BRANCH   2  17
HETATM   17  C   UNK N   1     157.523 122.893 155.047  0.00  0.00     0.245 C 
HETATM   18  O   UNK N   1     156.388 123.168 155.416  0.00  0.00    -0.271 OA
HETATM   19  N   UNK N   1     158.548 122.989 155.943  0.00  0.00    -0.293 N 
HETATM   20  H   UNK N   1     159.522 122.838 155.644  0.00  0.00     0.183 HD
BRANCH  19  21
HETATM   21  N   UNK N   1     158.312 123.384 157.251  0.00  0.00    -0.247 NA
HETATM   22  H   UNK N   1     157.338 123.764 157.293  0.00  0.00     0.143 HD
HETATM   23  H   UNK N   1     158.977 124.160 157.473  0.00  0.00     0.143 HD
ENDBRANCH  19  21
ENDBRANCH   2  17
BRANCH  13  24
HETATM   24  O   UNK N   1     157.109 125.477 153.300  0.00  0.00    -0.357 OA
HETATM   25  H   UNK N   1     156.724 126.318 153.051  0.00  0.00     0.218 HD
ENDBRANCH  13  24
BRANCH  16  26
HETATM   26  O   UNK N   1     158.848 127.328 152.399  0.00  0.00    -0.357 OA
HETATM   27  H   UNK N   1     158.395 127.664 151.612  0.00  0.00     0.218 HD
ENDBRANCH  16  26
BRANCH  15  28
HETATM   28  C   UNK N   1     161.582 126.790 151.815  0.00  0.00     0.013 C 
HETATM   29  C   UNK N   1     162.698 126.219 150.934  0.00  0.00     0.015 C 
HETATM   30  C   UNK N   1     162.161 127.491 153.052  0.00  0.00     0.015 C 
ENDBRANCH  15  28
TORSDOF 5
ENDMDL
MODEL 4
REMARK VINA RESULT:      -6.9     24.272     27.522
REMARK  5 active torsions:
REMARK  status: ('A' for Active; 'I' for Inactive)
REMARK    1  A    between atoms: O_2  and  C_19 
REMARK    2  A    between atoms: O_3  and  C_22 
REMARK    3  A    between atoms: N_4  and  N_5 
REMARK       I    between atoms: N_4  and  C_18 
REMARK    4  A    between atoms: C_7  and  C_18 
REMARK    5  A    between atoms: C_21  and  C_23 
ROOT
HETATM    1  C   UNK N   1     142.708 152.531 156.136  0.00  0.00     0.016 C 
HETATM    2  C   UNK N   1     141.612 152.626 157.266  0.00  0.00     0.077 C 
HETATM    3  C   UNK N   1     142.115 152.561 154.657  0.00  0.00    -0.043 C 
HETATM    4  C   UNK N   1     140.935 154.051 157.038  0.00  0.00     0.025 C 
HETATM    5  C   UNK N   1     140.834 153.457 154.590  0.00  0.00     0.009 C 
HETATM    6  C   UNK N   1     143.723 151.424 156.384  0.00  0.00     0.011 C 
HETATM    7  C   UNK N   1     140.939 154.601 155.587  0.00  0.00     0.002 C 
HETATM    8  C   UNK N   1     142.234 152.530 158.692  0.00  0.00     0.003 A 
HETATM    9  C   UNK N   1     144.468 151.698 157.688  0.00  0.00     0.040 C 
HETATM   10  C   UNK N   1     141.746 151.165 154.104  0.00  0.00     0.015 C 
HETATM   11  C   UNK N   1     143.191 153.163 153.711  0.00  0.00     0.015 C 
HETATM   12  C   UNK N   1     143.588 152.106 158.849  0.00  0.00    -0.047 A 
HETATM   13  C   UNK N   1     141.476 152.807 159.878  0.00  0.00     0.107 A 
HETATM   14  C   UNK N   1     144.156 152.021 160.126  0.00  0.00     0.018 A 
HETATM   15  C   UNK N   1     143.421 152.325 161.276  0.00  0.00    -0.018 A 
HETATM   16  C   UNK N   1     142.082 152.724 161.147  0.00  0.00     0.106 A 
ENDROOT
BRANCH   2  17
HETATM   17  C   UNK N   1     140.595 151.464 157.211  0.00  0.00     0.245 C 
HETATM   18  O   UNK N   1     140.985 150.303 157.200  0.00  0.00    -0.271 OA
HETATM   19  N   UNK N   1     139.260 151.712 157.063  0.00  0.00    -0.293 N 
HETATM   20  H   UNK N   1     138.911 152.678 156.993  0.00  0.00     0.183 HD
BRANCH  19  21
HETATM   21  N   UNK N   1     138.358 150.669 156.909  0.00  0.00    -0.247 NA
HETATM   22  H   UNK N   1     138.402 150.362 155.909  0.00  0.00     0.143 HD
HETATM   23  H   UNK N   1     137.402 151.048 157.095  0.00  0.00     0.143 HD
ENDBRANCH  19  21
ENDBRANCH   2  17
BRANCH  13  24
HETATM   24  O   UNK N   1     140.162 153.124 159.849  0.00  0.00    -0.357 OA
HETATM   25  H   UNK N   1     139.620 153.160 159.059  0.00  0.00     0.218 HD
ENDBRANCH  13  24
BRANCH  16  26
HETATM   26  O   UNK N   1     141.362 153.003 162.260  0.00  0.00    -0.357 OA
HETATM   27  H   UNK N   1     141.212 152.359 162.967  0.00  0.00     0.218 HD
ENDBRANCH  16  26
BRANCH  15  28
HETATM   28  C   UNK N   1     144.057 152.173 162.655  0.00  0.00     0.013 C 
HETATM   29  C   UNK N   1     145.059 153.296 162.942  0.00  0.00     0.015 C 
HETATM   30  C   UNK N   1     144.719 150.795 162.785  0.00  0.00     0.015 C 
ENDBRANCH  15  28
TORSDOF 5
ENDMDL
MODEL 5
REMARK VINA RESULT:      -6.8     41.154     43.399
REMARK  5 active torsions:
REMARK  status: ('A' for Active; 'I' for Inactive)
REMARK    1  A    between atoms: O_2  and  C_19 
REMARK    2  A    between atoms: O_3  and  C_22 
REMARK    3  A    between atoms: N_4  and  N_5 
REMARK       I    between atoms: N_4  and  C_18 
REMARK    4  A    between atoms: C_7  and  C_18 
REMARK    5  A    between atoms: C_21  and  C_23 
ROOT
HETATM    1  C   UNK N   1     153.920 132.813 167.676  0.00  0.00     0.016 C 
HETATM    2  C   UNK N   1     154.954 131.625 167.597  0.00  0.00     0.077 C 
HETATM    3  C   UNK N   1     152.475 132.379 168.189  0.00  0.00    -0.043 C 
HETATM    4  C   UNK N   1     155.097 131.129 169.106  0.00  0.00     0.025 C 
HETATM    5  C   UNK N   1     152.581 131.214 169.228  0.00  0.00     0.009 C 
HETATM    6  C   UNK N   1     153.908 133.675 166.421  0.00  0.00     0.011 C 
HETATM    7  C   UNK N   1     153.868 131.338 170.029  0.00  0.00     0.002 C 
HETATM    8  C   UNK N   1     156.331 132.086 167.033  0.00  0.00     0.003 A 
HETATM    9  C   UNK N   1     155.282 134.310 166.225  0.00  0.00     0.040 C 
HETATM   10  C   UNK N   1     151.522 131.922 167.060  0.00  0.00     0.015 C 
HETATM   11  C   UNK N   1     151.815 133.603 168.883  0.00  0.00     0.015 C 
HETATM   12  C   UNK N   1     156.451 133.364 166.409  0.00  0.00    -0.047 A 
HETATM   13  C   UNK N   1     157.493 131.245 167.067  0.00  0.00     0.107 A 
HETATM   14  C   UNK N   1     157.685 133.788 165.902  0.00  0.00     0.018 A 
HETATM   15  C   UNK N   1     158.822 132.977 165.970  0.00  0.00    -0.018 A 
HETATM   16  C   UNK N   1     158.723 131.708 166.560  0.00  0.00     0.106 A 
ENDROOT
BRANCH   2  17
HETATM   17  C   UNK N   1     154.501 130.501 166.639  0.00  0.00     0.245 C 
HETATM   18  O   UNK N   1     154.490 129.336 167.017  0.00  0.00    -0.271 OA
HETATM   19  N   UNK N   1     154.215 130.772 165.331  0.00  0.00    -0.293 N 
HETATM   20  H   UNK N   1     154.290 131.732 164.966  0.00  0.00     0.183 HD
BRANCH  19  21
HETATM   21  N   UNK N   1     153.910 129.749 164.445  0.00  0.00    -0.247 NA
HETATM   22  H   UNK N   1     152.937 129.914 164.099  0.00  0.00     0.143 HD
HETATM   23  H   UNK N   1     153.919 128.852 164.982  0.00  0.00     0.143 HD
ENDBRANCH  19  21
ENDBRANCH   2  17
BRANCH  13  24
HETATM   24  O   UNK N   1     157.468 129.982 167.549  0.00  0.00    -0.357 OA
HETATM   25  H   UNK N   1     157.256 129.200 167.037  0.00  0.00     0.218 HD
ENDBRANCH  13  24
BRANCH  16  26
HETATM   26  O   UNK N   1     159.819 130.914 166.613  0.00  0.00    -0.357 OA
HETATM   27  H   UNK N   1     159.961 130.170 166.010  0.00  0.00     0.218 HD
ENDBRANCH  16  26
BRANCH  15  28
HETATM   28  C   UNK N   1     160.139 133.451 165.363  0.00  0.00     0.013 C 
HETATM   29  C   UNK N   1     160.321 134.965 165.518  0.00  0.00     0.015 C 
HETATM   30  C   UNK N   1     160.225 133.033 163.889  0.00  0.00     0.015 C 
ENDBRANCH  15  28
TORSDOF 5
ENDMDL
MODEL 6
REMARK VINA RESULT:      -6.8     34.120     36.278
REMARK  5 active torsions:
REMARK  status: ('A' for Active; 'I' for Inactive)
REMARK    1  A    between atoms: O_2  and  C_19 
REMARK    2  A    between atoms: O_3  and  C_22 
REMARK    3  A    between atoms: N_4  and  N_5 
REMARK       I    between atoms: N_4  and  C_18 
REMARK    4  A    between atoms: C_7  and  C_18 
REMARK    5  A    between atoms: C_21  and  C_23 
ROOT
HETATM    1  C   UNK N   1     167.708 154.640 186.921  0.00  0.00     0.016 C 
HETATM    2  C   UNK N   1     167.194 154.676 188.412  0.00  0.00     0.077 C 
HETATM    3  C   UNK N   1     167.303 153.317 186.130  0.00  0.00    -0.043 C 
HETATM    4  C   UNK N   1     165.605 154.650 188.281  0.00  0.00     0.025 C 
HETATM    5  C   UNK N   1     165.912 152.786 186.612  0.00  0.00     0.009 C 
HETATM    6  C   UNK N   1     169.173 155.028 186.788  0.00  0.00     0.011 C 
HETATM    7  C   UNK N   1     165.020 153.945 187.028  0.00  0.00     0.002 C 
HETATM    8  C   UNK N   1     167.667 155.958 189.161  0.00  0.00     0.003 A 
HETATM    9  C   UNK N   1     169.369 156.460 187.278  0.00  0.00     0.040 C 
HETATM   10  C   UNK N   1     168.326 152.166 186.273  0.00  0.00     0.015 C 
HETATM   11  C   UNK N   1     167.205 153.662 184.618  0.00  0.00     0.015 C 
HETATM   12  C   UNK N   1     168.680 156.783 188.588  0.00  0.00    -0.047 A 
HETATM   13  C   UNK N   1     167.154 156.325 190.450  0.00  0.00     0.107 A 
HETATM   14  C   UNK N   1     169.109 157.938 189.252  0.00  0.00     0.018 A 
HETATM   15  C   UNK N   1     168.579 158.308 190.492  0.00  0.00    -0.018 A 
HETATM   16  C   UNK N   1     167.596 157.501 191.085  0.00  0.00     0.106 A 
ENDROOT
BRANCH   2  17
HETATM   17  C   UNK N   1     167.744 153.509 189.262  0.00  0.00     0.245 C 
HETATM   18  O   UNK N   1     168.952 153.359 189.395  0.00  0.00    -0.271 OA
HETATM   19  N   UNK N   1     166.902 152.568 189.782  0.00  0.00    -0.293 N 
HETATM   20  H   UNK N   1     165.887 152.626 189.621  0.00  0.00     0.183 HD
BRANCH  19  21
HETATM   21  N   UNK N   1     167.403 151.463 190.456  0.00  0.00    -0.247 NA
HETATM   22  H   UNK N   1     168.229 151.115 189.917  0.00  0.00     0.143 HD
HETATM   23  H   UNK N   1     166.666 150.722 190.442  0.00  0.00     0.143 HD
ENDBRANCH  19  21
ENDBRANCH   2  17
BRANCH  13  24
HETATM   24  O   UNK N   1     166.262 155.566 191.125  0.00  0.00    -0.357 OA
HETATM   25  H   UNK N   1     165.472 155.176 190.748  0.00  0.00     0.218 HD
ENDBRANCH  13  24
BRANCH  16  26
HETATM   26  O   UNK N   1     167.094 157.848 192.294  0.00  0.00    -0.357 OA
HETATM   27  H   UNK N   1     167.455 157.521 193.130  0.00  0.00     0.218 HD
ENDBRANCH  16  26
BRANCH  15  28
HETATM   28  C   UNK N   1     169.105 159.547 191.211  0.00  0.00     0.013 C 
HETATM   29  C   UNK N   1     168.318 160.804 190.822  0.00  0.00     0.015 C 
HETATM   30  C   UNK N   1     170.604 159.727 190.933  0.00  0.00     0.015 C 
ENDBRANCH  15  28
TORSDOF 5
ENDMDL
MODEL 7
REMARK VINA RESULT:      -6.7     38.303     42.377
REMARK  5 active torsions:
REMARK  status: ('A' for Active; 'I' for Inactive)
REMARK    1  A    between atoms: O_2  and  C_19 
REMARK    2  A    between atoms: O_3  and  C_22 
REMARK    3  A    between atoms: N_4  and  N_5 
REMARK       I    between atoms: N_4  and  C_18 
REMARK    4  A    between atoms: C_7  and  C_18 
REMARK    5  A    between atoms: C_21  and  C_23 
ROOT
HETATM    1  C   UNK N   1     133.517 137.674 147.787  0.00  0.00     0.016 C 
HETATM    2  C   UNK N   1     133.672 137.741 149.355  0.00  0.00     0.077 C 
HETATM    3  C   UNK N   1     132.508 136.547 147.286  0.00  0.00    -0.043 C 
HETATM    4  C   UNK N   1     132.215 138.121 149.878  0.00  0.00     0.025 C 
HETATM    5  C   UNK N   1     131.342 136.350 148.311  0.00  0.00     0.009 C 
HETATM    6  C   UNK N   1     134.853 137.691 147.057  0.00  0.00     0.011 C 
HETATM    7  C   UNK N   1     131.019 137.667 149.000  0.00  0.00     0.002 C 
HETATM    8  C   UNK N   1     134.714 138.814 149.793  0.00  0.00     0.003 A 
HETATM    9  C   UNK N   1     135.585 138.995 147.363  0.00  0.00     0.040 C 
HETATM   10  C   UNK N   1     133.173 135.171 147.054  0.00  0.00     0.015 C 
HETATM   11  C   UNK N   1     131.904 137.002 145.928  0.00  0.00     0.015 C 
HETATM   12  C   UNK N   1     135.586 139.395 148.824  0.00  0.00    -0.047 A 
HETATM   13  C   UNK N   1     134.873 139.214 151.162  0.00  0.00     0.107 A 
HETATM   14  C   UNK N   1     136.523 140.362 149.208  0.00  0.00     0.018 A 
HETATM   15  C   UNK N   1     136.648 140.772 150.539  0.00  0.00    -0.018 A 
HETATM   16  C   UNK N   1     135.816 140.199 151.513  0.00  0.00     0.106 A 
ENDROOT
BRANCH   2  17
HETATM   17  C   UNK N   1     134.200 136.422 149.961  0.00  0.00     0.245 C 
HETATM   18  O   UNK N   1     133.557 135.840 150.826  0.00  0.00    -0.271 OA
HETATM   19  N   UNK N   1     135.435 135.945 149.627  0.00  0.00    -0.293 N 
HETATM   20  H   UNK N   1     136.031 136.455 148.959  0.00  0.00     0.183 HD
BRANCH  19  21
HETATM   21  N   UNK N   1     135.953 134.818 150.248  0.00  0.00    -0.247 NA
HETATM   22  H   UNK N   1     135.560 133.981 149.756  0.00  0.00     0.143 HD
HETATM   23  H   UNK N   1     135.606 134.812 151.234  0.00  0.00     0.143 HD
ENDBRANCH  19  21
ENDBRANCH   2  17
BRANCH  13  24
HETATM   24  O   UNK N   1     134.165 138.660 152.172  0.00  0.00    -0.357 OA
HETATM   25  H   UNK N   1     133.902 137.740 152.222  0.00  0.00     0.218 HD
ENDBRANCH  13  24
BRANCH  16  26
HETATM   26  O   UNK N   1     135.946 140.583 152.805  0.00  0.00    -0.357 OA
HETATM   27  H   UNK N   1     135.816 139.979 153.550  0.00  0.00     0.218 HD
ENDBRANCH  16  26
BRANCH  15  28
HETATM   28  C   UNK N   1     137.714 141.792 150.929  0.00  0.00     0.013 C 
HETATM   29  C   UNK N   1     137.142 143.212 150.994  0.00  0.00     0.015 C 
HETATM   30  C   UNK N   1     138.900 141.719 149.958  0.00  0.00     0.015 C 
ENDBRANCH  15  28
TORSDOF 5
ENDMDL
MODEL 8
REMARK VINA RESULT:      -6.7     66.679     69.746
REMARK  5 active torsions:
REMARK  status: ('A' for Active; 'I' for Inactive)
REMARK    1  A    between atoms: O_2  and  C_19 
REMARK    2  A    between atoms: O_3  and  C_22 
REMARK    3  A    between atoms: N_4  and  N_5 
REMARK       I    between atoms: N_4  and  C_18 
REMARK    4  A    between atoms: C_7  and  C_18 
REMARK    5  A    between atoms: C_21  and  C_23 
ROOT
HETATM    1  C   UNK N   1     146.363 134.001 121.507  0.00  0.00     0.016 C 
HETATM    2  C   UNK N   1     146.073 133.381 120.086  0.00  0.00     0.077 C 
HETATM    3  C   UNK N   1     146.817 135.528 121.465  0.00  0.00    -0.043 C 
HETATM    4  C   UNK N   1     144.853 134.241 119.524  0.00  0.00     0.025 C 
HETATM    5  C   UNK N   1     146.121 136.282 120.284  0.00  0.00     0.009 C 
HETATM    6  C   UNK N   1     147.237 133.110 122.378  0.00  0.00     0.011 C 
HETATM    7  C   UNK N   1     144.738 135.703 120.031  0.00  0.00     0.002 C 
HETATM    8  C   UNK N   1     145.694 131.873 120.174  0.00  0.00     0.003 A 
HETATM    9  C   UNK N   1     146.527 131.781 122.622  0.00  0.00     0.040 C 
HETATM   10  C   UNK N   1     148.344 135.722 121.318  0.00  0.00     0.015 C 
HETATM   11  C   UNK N   1     146.393 136.201 122.800  0.00  0.00     0.015 C 
HETATM   12  C   UNK N   1     145.905 131.157 121.390  0.00  0.00    -0.047 A 
HETATM   13  C   UNK N   1     145.178 131.146 119.049  0.00  0.00     0.107 A 
HETATM   14  C   UNK N   1     145.564 129.802 121.479  0.00  0.00     0.018 A 
HETATM   15  C   UNK N   1     145.030 129.108 120.389  0.00  0.00    -0.018 A 
HETATM   16  C   UNK N   1     144.832 129.787 119.176  0.00  0.00     0.106 A 
ENDROOT
BRANCH   2  17
HETATM   17  C   UNK N   1     147.307 133.415 119.156  0.00  0.00     0.245 C 
HETATM   18  O   UNK N   1     147.255 134.008 118.086  0.00  0.00    -0.271 OA
HETATM   19  N   UNK N   1     148.428 132.697 119.458  0.00  0.00    -0.293 N 
HETATM   20  H   UNK N   1     148.470 132.126 120.315  0.00  0.00     0.183 HD
BRANCH  19  21
HETATM   21  N   UNK N   1     149.495 132.643 118.574  0.00  0.00    -0.247 NA
HETATM   22  H   UNK N   1     149.981 133.568 118.613  0.00  0.00     0.143 HD
HETATM   23  H   UNK N   1     149.104 132.517 117.613  0.00  0.00     0.143 HD
ENDBRANCH  19  21
ENDBRANCH   2  17
BRANCH  13  24
HETATM   24  O   UNK N   1     145.027 131.702 117.826  0.00  0.00    -0.357 OA
HETATM   25  H   UNK N   1     145.464 131.405 117.027  0.00  0.00     0.218 HD
ENDBRANCH  13  24
BRANCH  16  26
HETATM   26  O   UNK N   1     144.330 129.114 118.114  0.00  0.00    -0.357 OA
HETATM   27  H   UNK N   1     144.869 128.541 117.549  0.00  0.00     0.218 HD
ENDBRANCH  16  26
BRANCH  15  28
HETATM   28  C   UNK N   1     144.716 127.620 120.507  0.00  0.00     0.013 C 
HETATM   29  C   UNK N   1     144.010 127.293 121.827  0.00  0.00     0.015 C 
HETATM   30  C   UNK N   1     145.998 126.792 120.347  0.00  0.00     0.015 C 
ENDBRANCH  15  28
TORSDOF 5
ENDMDL
MODEL 9
REMARK VINA RESULT:      -6.7     36.181     39.721
REMARK  5 active torsions:
REMARK  status: ('A' for Active; 'I' for Inactive)
REMARK    1  A    between atoms: O_2  and  C_19 
REMARK    2  A    between atoms: O_3  and  C_22 
REMARK    3  A    between atoms: N_4  and  N_5 
REMARK       I    between atoms: N_4  and  C_18 
REMARK    4  A    between atoms: C_7  and  C_18 
REMARK    5  A    between atoms: C_21  and  C_23 
ROOT
HETATM    1  C   UNK N   1     135.731 141.435 152.852  0.00  0.00     0.016 C 
HETATM    2  C   UNK N   1     136.252 140.483 151.708  0.00  0.00     0.077 C 
HETATM    3  C   UNK N   1     136.862 142.358 153.490  0.00  0.00    -0.043 C 
HETATM    4  C   UNK N   1     136.771 141.478 150.575  0.00  0.00     0.025 C 
HETATM    5  C   UNK N   1     137.931 142.749 152.416  0.00  0.00     0.009 C 
HETATM    6  C   UNK N   1     134.857 140.717 153.871  0.00  0.00     0.011 C 
HETATM    7  C   UNK N   1     137.282 142.865 151.045  0.00  0.00     0.002 C 
HETATM    8  C   UNK N   1     135.125 139.558 151.159  0.00  0.00     0.003 A 
HETATM    9  C   UNK N   1     133.619 140.156 153.176  0.00  0.00     0.040 C 
HETATM   10  C   UNK N   1     137.603 141.705 154.680  0.00  0.00     0.015 C 
HETATM   11  C   UNK N   1     136.193 143.656 154.020  0.00  0.00     0.015 C 
HETATM   12  C   UNK N   1     133.892 139.443 151.868  0.00  0.00    -0.047 A 
HETATM   13  C   UNK N   1     135.294 138.763 149.976  0.00  0.00     0.107 A 
HETATM   14  C   UNK N   1     132.872 138.617 151.381  0.00  0.00     0.018 A 
HETATM   15  C   UNK N   1     133.031 137.872 150.208  0.00  0.00    -0.018 A 
HETATM   16  C   UNK N   1     134.243 137.952 149.505  0.00  0.00     0.106 A 
ENDROOT
BRANCH   2  17
HETATM   17  C   UNK N   1     137.347 139.507 152.194  0.00  0.00     0.245 C 
HETATM   18  O   UNK N   1     138.407 139.418 151.587  0.00  0.00    -0.271 OA
HETATM   19  N   UNK N   1     137.111 138.656 153.235  0.00  0.00    -0.293 N 
HETATM   20  H   UNK N   1     136.201 138.656 153.716  0.00  0.00     0.183 HD
BRANCH  19  21
HETATM   21  N   UNK N   1     138.055 137.709 153.605  0.00  0.00    -0.247 NA
HETATM   22  H   UNK N   1     137.537 136.868 153.949  0.00  0.00     0.143 HD
HETATM   23  H   UNK N   1     138.605 138.104 154.402  0.00  0.00     0.143 HD
ENDBRANCH  19  21
ENDBRANCH   2  17
BRANCH  13  24
HETATM   24  O   UNK N   1     136.453 138.724 149.282  0.00  0.00    -0.357 OA
HETATM   25  H   UNK N   1     137.189 138.139 149.469  0.00  0.00     0.218 HD
ENDBRANCH  13  24
BRANCH  16  26
HETATM   26  O   UNK N   1     134.406 137.219 148.379  0.00  0.00    -0.357 OA
HETATM   27  H   UNK N   1     134.389 136.251 148.372  0.00  0.00     0.218 HD
ENDBRANCH  16  26
BRANCH  15  28
HETATM   28  C   UNK N   1     131.917 136.944 149.733  0.00  0.00     0.013 C 
HETATM   29  C   UNK N   1     130.836 137.707 148.961  0.00  0.00     0.015 C 
HETATM   30  C   UNK N   1     131.314 136.184 150.923  0.00  0.00     0.015 C 
ENDBRANCH  15  28
TORSDOF 5
ENDMDL
