MODEL 1
REMARK VINA RESULT:      -7.2      0.000      0.000
REMARK  6 active torsions:
REMARK  status: ('A' for Active; 'I' for Inactive)
REMARK    1  A    between atoms: O_2  and  C_20 
REMARK    2  A    between atoms: O_3  and  C_23 
REMARK       I    between atoms: N_4  and  C_19 
REMARK    3  A    between atoms: N_4  and  C_25 
REMARK    4  A    between atoms: C_8  and  C_19 
REMARK    5  A    between atoms: C_22  and  C_24 
REMARK    6  A    between atoms: C_25  and  C_28 
ROOT
HETATM    1  C   UNK N   1     133.429 168.198 176.910  0.00  0.00     0.016 C 
HETATM    2  C   UNK N   1     133.407 167.986 178.499  0.00  0.00     0.075 C 
HETATM    3  C   UNK N   1     132.164 167.659 176.129  0.00  0.00    -0.043 C 
HETATM    4  C   UNK N   1     132.087 168.722 178.942  0.00  0.00     0.025 C 
HETATM    5  C   UNK N   1     130.903 168.314 176.753  0.00  0.00     0.009 C 
HETATM    6  C   UNK N   1     134.775 167.776 176.315  0.00  0.00     0.011 C 
HETATM    7  C   UNK N   1     130.828 168.139 178.263  0.00  0.00     0.002 C 
HETATM    8  C   UNK N   1     134.675 168.618 179.137  0.00  0.00     0.003 A 
HETATM    9  C   UNK N   1     135.874 168.686 176.856  0.00  0.00     0.040 C 
HETATM   10  C   UNK N   1     132.056 166.118 176.135  0.00  0.00     0.015 C 
HETATM   11  C   UNK N   1     132.188 168.114 174.644  0.00  0.00     0.015 C 
HETATM   12  C   UNK N   1     135.810 168.945 178.341  0.00  0.00    -0.047 A 
HETATM   13  C   UNK N   1     134.758 168.823 180.548  0.00  0.00     0.107 A 
HETATM   14  C   UNK N   1     136.941 169.516 178.930  0.00  0.00     0.018 A 
HETATM   15  C   UNK N   1     137.009 169.754 180.308  0.00  0.00    -0.018 A 
HETATM   16  C   UNK N   1     135.918 169.407 181.124  0.00  0.00     0.106 A 
ENDROOT
BRANCH   2  17
HETATM   17  C   UNK N   1     133.492 166.515 179.000  0.00  0.00     0.231 C 
HETATM   18  O   UNK N   1     134.436 165.830 178.639  0.00  0.00    -0.272 OA
HETATM   19  N   UNK N   1     132.598 165.987 179.898  0.00  0.00    -0.356 N 
HETATM   20  H   UNK N   1     131.803 166.534 180.244  0.00  0.00     0.162 HD
BRANCH  19  21
HETATM   21  C   UNK N   1     132.733 164.632 180.409  0.00  0.00     0.162 C 
BRANCH  21  22
HETATM   22  C   UNK N   1     131.473 163.818 180.205  0.00  0.00    -0.025 A 
HETATM   23  C   UNK N   1     130.547 164.177 179.212  0.00  0.00     0.011 A 
HETATM   24  C   UNK N   1     129.412 163.392 178.999  0.00  0.00     0.018 A 
HETATM   25  C   UNK N   1     129.206 162.257 179.786  0.00  0.00     0.087 A 
HETATM   26  N   UNK N   1     130.106 161.924 180.749  0.00  0.00    -0.375 N 
HETATM   27  C   UNK N   1     131.223 162.669 180.973  0.00  0.00     0.096 A 
ATOM     28  HN  UNK N   1     129.939 161.096 181.320  1.00  0.00     0.164 HD
ENDBRANCH  21  22
ENDBRANCH  19  21
ENDBRANCH   2  17
BRANCH  13  29
HETATM   29  O   UNK N   1     133.721 168.441 181.327  0.00  0.00    -0.357 OA
HETATM   30  H   UNK N   1     133.772 167.832 182.073  0.00  0.00     0.218 HD
ENDBRANCH  13  29
BRANCH  16  31
HETATM   31  O   UNK N   1     136.009 169.635 182.456  0.00  0.00    -0.357 OA
HETATM   32  H   UNK N   1     135.320 169.449 183.103  0.00  0.00     0.218 HD
ENDBRANCH  16  31
BRANCH  15  33
HETATM   33  C   UNK N   1     138.273 170.359 180.913  0.00  0.00     0.013 C 
HETATM   34  C   UNK N   1     138.693 171.630 180.164  0.00  0.00     0.015 C 
HETATM   35  C   UNK N   1     139.411 169.330 180.931  0.00  0.00     0.015 C 
ENDBRANCH  15  33
TORSDOF 6
ENDMDL
MODEL 2
REMARK VINA RESULT:      -7.1     48.422     50.894
REMARK  6 active torsions:
REMARK  status: ('A' for Active; 'I' for Inactive)
REMARK    1  A    between atoms: O_2  and  C_20 
REMARK    2  A    between atoms: O_3  and  C_23 
REMARK       I    between atoms: N_4  and  C_19 
REMARK    3  A    between atoms: N_4  and  C_25 
REMARK    4  A    between atoms: C_8  and  C_19 
REMARK    5  A    between atoms: C_22  and  C_24 
REMARK    6  A    between atoms: C_25  and  C_28 
ROOT
HETATM    1  C   UNK N   1     145.071 134.029 144.646  0.00  0.00     0.016 C 
HETATM    2  C   UNK N   1     144.271 134.015 143.257  0.00  0.00     0.075 C 
HETATM    3  C   UNK N   1     146.343 133.093 144.714  0.00  0.00    -0.043 C 
HETATM    4  C   UNK N   1     145.366 134.436 142.206  0.00  0.00     0.025 C 
HETATM    5  C   UNK N   1     147.280 133.474 143.538  0.00  0.00     0.009 C 
HETATM    6  C   UNK N   1     144.115 133.898 145.835  0.00  0.00     0.011 C 
HETATM    7  C   UNK N   1     146.572 133.472 142.190  0.00  0.00     0.002 C 
HETATM    8  C   UNK N   1     143.091 135.025 143.313  0.00  0.00     0.003 A 
HETATM    9  C   UNK N   1     143.201 135.118 145.886  0.00  0.00     0.040 C 
HETATM   10  C   UNK N   1     145.993 131.589 144.688  0.00  0.00     0.015 C 
HETATM   11  C   UNK N   1     147.160 133.354 146.010  0.00  0.00     0.015 C 
HETATM   12  C   UNK N   1     142.619 135.532 144.556  0.00  0.00    -0.047 A 
HETATM   13  C   UNK N   1     142.407 135.415 142.121  0.00  0.00     0.107 A 
HETATM   14  C   UNK N   1     141.559 136.441 144.589  0.00  0.00     0.018 A 
HETATM   15  C   UNK N   1     140.913 136.855 143.418  0.00  0.00    -0.018 A 
HETATM   16  C   UNK N   1     141.333 136.342 142.178  0.00  0.00     0.106 A 
ENDROOT
BRANCH   2  17
HETATM   17  C   UNK N   1     143.545 132.688 142.892  0.00  0.00     0.231 C 
HETATM   18  O   UNK N   1     142.695 132.260 143.658  0.00  0.00    -0.272 OA
HETATM   19  N   UNK N   1     143.758 132.029 141.708  0.00  0.00    -0.356 N 
HETATM   20  H   UNK N   1     144.447 132.365 141.027  0.00  0.00     0.162 HD
BRANCH  19  21
HETATM   21  C   UNK N   1     143.019 130.827 141.353  0.00  0.00     0.162 C 
BRANCH  21  22
HETATM   22  C   UNK N   1     143.800 129.937 140.410  0.00  0.00    -0.025 A 
HETATM   23  C   UNK N   1     143.427 129.830 139.061  0.00  0.00     0.011 A 
HETATM   24  C   UNK N   1     144.184 129.043 138.188  0.00  0.00     0.018 A 
HETATM   25  C   UNK N   1     145.302 128.363 138.673  0.00  0.00     0.087 A 
HETATM   26  N   UNK N   1     145.648 128.469 139.984  0.00  0.00    -0.375 N 
HETATM   27  C   UNK N   1     144.931 129.233 140.853  0.00  0.00     0.096 A 
ATOM     28  HN  UNK N   1     146.464 127.961 140.325  1.00  0.00     0.164 HD
ENDBRANCH  21  22
ENDBRANCH  19  21
ENDBRANCH   2  17
BRANCH  13  29
HETATM   29  O   UNK N   1     142.789 134.878 140.940  0.00  0.00    -0.357 OA
HETATM   30  H   UNK N   1     143.546 134.298 140.805  0.00  0.00     0.218 HD
ENDBRANCH  13  29
BRANCH  16  31
HETATM   31  O   UNK N   1     140.686 136.748 141.059  0.00  0.00    -0.357 OA
HETATM   32  H   UNK N   1     139.804 137.136 141.033  0.00  0.00     0.218 HD
ENDBRANCH  16  31
BRANCH  15  33
HETATM   33  C   UNK N   1     139.744 137.834 143.502  0.00  0.00     0.013 C 
HETATM   34  C   UNK N   1     140.226 139.244 143.864  0.00  0.00     0.015 C 
HETATM   35  C   UNK N   1     138.692 137.337 144.502  0.00  0.00     0.015 C 
ENDBRANCH  15  33
TORSDOF 6
ENDMDL
MODEL 3
REMARK VINA RESULT:      -7.1     54.554     56.156
REMARK  6 active torsions:
REMARK  status: ('A' for Active; 'I' for Inactive)
REMARK    1  A    between atoms: O_2  and  C_20 
REMARK    2  A    between atoms: O_3  and  C_23 
REMARK       I    between atoms: N_4  and  C_19 
REMARK    3  A    between atoms: N_4  and  C_25 
REMARK    4  A    between atoms: C_8  and  C_19 
REMARK    5  A    between atoms: C_22  and  C_24 
REMARK    6  A    between atoms: C_25  and  C_28 
ROOT
HETATM    1  C   UNK N   1     158.664 120.963 153.307  0.00  0.00     0.016 C 
HETATM    2  C   UNK N   1     157.975 122.387 153.567  0.00  0.00     0.075 C 
HETATM    3  C   UNK N   1     157.797 119.701 153.699  0.00  0.00    -0.043 C 
HETATM    4  C   UNK N   1     156.647 122.304 152.725  0.00  0.00     0.025 C 
HETATM    5  C   UNK N   1     156.443 119.800 152.949  0.00  0.00     0.009 C 
HETATM    6  C   UNK N   1     160.102 120.941 153.834  0.00  0.00     0.011 C 
HETATM    7  C   UNK N   1     155.740 121.133 153.165  0.00  0.00     0.002 C 
HETATM    8  C   UNK N   1     158.911 123.528 153.077  0.00  0.00     0.003 A 
HETATM    9  C   UNK N   1     160.943 121.943 153.049  0.00  0.00     0.040 C 
HETATM   10  C   UNK N   1     157.585 119.557 155.222  0.00  0.00     0.015 C 
HETATM   11  C   UNK N   1     158.463 118.388 153.201  0.00  0.00     0.015 C 
HETATM   12  C   UNK N   1     160.292 123.287 152.833  0.00  0.00    -0.047 A 
HETATM   13  C   UNK N   1     158.420 124.860 152.927  0.00  0.00     0.107 A 
HETATM   14  C   UNK N   1     161.119 124.323 152.391  0.00  0.00     0.018 A 
HETATM   15  C   UNK N   1     160.631 125.621 152.205  0.00  0.00    -0.018 A 
HETATM   16  C   UNK N   1     159.279 125.897 152.474  0.00  0.00     0.106 A 
ENDROOT
BRANCH   2  17
HETATM   17  C   UNK N   1     157.739 122.779 155.055  0.00  0.00     0.231 C 
HETATM   18  O   UNK N   1     158.652 122.618 155.851  0.00  0.00    -0.272 OA
HETATM   19  N   UNK N   1     156.582 123.375 155.488  0.00  0.00    -0.356 N 
HETATM   20  H   UNK N   1     155.799 123.548 154.849  0.00  0.00     0.162 HD
BRANCH  19  21
HETATM   21  C   UNK N   1     156.406 123.798 156.869  0.00  0.00     0.162 C 
BRANCH  21  22
HETATM   22  C   UNK N   1     157.054 125.138 157.142  0.00  0.00    -0.025 A 
HETATM   23  C   UNK N   1     156.912 126.196 156.230  0.00  0.00     0.011 A 
HETATM   24  C   UNK N   1     157.474 127.443 156.515  0.00  0.00     0.018 A 
HETATM   25  C   UNK N   1     158.180 127.621 157.705  0.00  0.00     0.087 A 
HETATM   26  N   UNK N   1     158.317 126.586 158.576  0.00  0.00    -0.375 N 
HETATM   27  C   UNK N   1     157.775 125.363 158.326  0.00  0.00     0.096 A 
ATOM     28  HN  UNK N   1     158.841 126.730 159.440  1.00  0.00     0.164 HD
ENDBRANCH  21  22
ENDBRANCH  19  21
ENDBRANCH   2  17
BRANCH  13  29
HETATM   29  O   UNK N   1     157.130 125.123 153.235  0.00  0.00    -0.357 OA
HETATM   30  H   UNK N   1     156.377 124.556 153.036  0.00  0.00     0.218 HD
ENDBRANCH  13  29
BRANCH  16  31
HETATM   31  O   UNK N   1     158.831 127.164 152.298  0.00  0.00    -0.357 OA
HETATM   32  H   UNK N   1     158.234 127.452 151.599  0.00  0.00     0.218 HD
ENDBRANCH  16  31
BRANCH  15  33
HETATM   33  C   UNK N   1     161.575 126.728 151.740  0.00  0.00     0.013 C 
HETATM   34  C   UNK N   1     162.731 126.159 150.908  0.00  0.00     0.015 C 
HETATM   35  C   UNK N   1     162.102 127.528 152.939  0.00  0.00     0.015 C 
ENDBRANCH  15  33
TORSDOF 6
ENDMDL
MODEL 4
REMARK VINA RESULT:      -7.0     55.419     56.938
REMARK  6 active torsions:
REMARK  status: ('A' for Active; 'I' for Inactive)
REMARK    1  A    between atoms: O_2  and  C_20 
REMARK    2  A    between atoms: O_3  and  C_23 
REMARK       I    between atoms: N_4  and  C_19 
REMARK    3  A    between atoms: N_4  and  C_25 
REMARK    4  A    between atoms: C_8  and  C_19 
REMARK    5  A    between atoms: C_22  and  C_24 
REMARK    6  A    between atoms: C_25  and  C_28 
ROOT
HETATM    1  C   UNK N   1     159.207 123.454 152.983  0.00  0.00     0.016 C 
HETATM    2  C   UNK N   1     160.506 124.393 153.050  0.00  0.00     0.075 C 
HETATM    3  C   UNK N   1     157.827 124.173 153.259  0.00  0.00    -0.043 C 
HETATM    4  C   UNK N   1     160.201 125.508 151.981  0.00  0.00     0.025 C 
HETATM    5  C   UNK N   1     157.699 125.359 152.268  0.00  0.00     0.009 C 
HETATM    6  C   UNK N   1     159.422 122.157 153.767  0.00  0.00     0.011 C 
HETATM    7  C   UNK N   1     158.905 126.288 152.293  0.00  0.00     0.002 C 
HETATM    8  C   UNK N   1     161.776 123.569 152.695  0.00  0.00     0.003 A 
HETATM    9  C   UNK N   1     160.536 121.347 153.111  0.00  0.00     0.040 C 
HETATM   10  C   UNK N   1     157.670 124.646 154.722  0.00  0.00     0.015 C 
HETATM   11  C   UNK N   1     156.633 123.230 152.949  0.00  0.00     0.015 C 
HETATM   12  C   UNK N   1     161.757 122.146 152.722  0.00  0.00    -0.047 A 
HETATM   13  C   UNK N   1     163.011 124.223 152.400  0.00  0.00     0.107 A 
HETATM   14  C   UNK N   1     162.906 121.421 152.397  0.00  0.00     0.018 A 
HETATM   15  C   UNK N   1     164.107 122.060 152.069  0.00  0.00    -0.018 A 
HETATM   16  C   UNK N   1     164.166 123.465 152.071  0.00  0.00     0.106 A 
ENDROOT
BRANCH   2  17
HETATM   17  C   UNK N   1     160.872 124.964 154.450  0.00  0.00     0.231 C 
HETATM   18  O   UNK N   1     161.032 124.182 155.375  0.00  0.00    -0.272 OA
HETATM   19  N   UNK N   1     161.107 126.299 154.666  0.00  0.00    -0.356 N 
HETATM   20  H   UNK N   1     161.006 126.987 153.913  0.00  0.00     0.162 HD
BRANCH  19  21
HETATM   21  C   UNK N   1     161.517 126.807 155.967  0.00  0.00     0.162 C 
BRANCH  21  22
HETATM   22  C   UNK N   1     160.622 127.929 156.447  0.00  0.00    -0.025 A 
HETATM   23  C   UNK N   1     159.253 127.704 156.664  0.00  0.00     0.011 A 
HETATM   24  C   UNK N   1     158.445 128.733 157.154  0.00  0.00     0.018 A 
HETATM   25  C   UNK N   1     159.010 129.982 157.417  0.00  0.00     0.087 A 
HETATM   26  N   UNK N   1     160.336 130.189 157.195  0.00  0.00    -0.375 N 
HETATM   27  C   UNK N   1     161.146 129.202 156.724  0.00  0.00     0.096 A 
ATOM     28  HN  UNK N   1     160.733 131.109 157.386  1.00  0.00     0.164 HD
ENDBRANCH  21  22
ENDBRANCH  19  21
ENDBRANCH   2  17
BRANCH  13  29
HETATM   29  O   UNK N   1     163.066 125.573 152.453  0.00  0.00    -0.357 OA
HETATM   30  H   UNK N   1     162.980 126.109 153.248  0.00  0.00     0.218 HD
ENDBRANCH  13  29
BRANCH  16  31
HETATM   31  O   UNK N   1     165.342 124.063 151.762  0.00  0.00    -0.357 OA
HETATM   32  H   UNK N   1     165.526 124.546 150.949  0.00  0.00     0.218 HD
ENDBRANCH  16  31
BRANCH  15  33
HETATM   33  C   UNK N   1     165.345 121.229 151.742  0.00  0.00     0.013 C 
HETATM   34  C   UNK N   1     164.983 120.004 150.894  0.00  0.00     0.015 C 
HETATM   35  C   UNK N   1     166.073 120.813 153.028  0.00  0.00     0.015 C 
ENDBRANCH  15  33
TORSDOF 6
ENDMDL
MODEL 5
REMARK VINA RESULT:      -7.0     41.646     44.964
REMARK  6 active torsions:
REMARK  status: ('A' for Active; 'I' for Inactive)
REMARK    1  A    between atoms: O_2  and  C_20 
REMARK    2  A    between atoms: O_3  and  C_23 
REMARK       I    between atoms: N_4  and  C_19 
REMARK    3  A    between atoms: N_4  and  C_25 
REMARK    4  A    between atoms: C_8  and  C_19 
REMARK    5  A    between atoms: C_22  and  C_24 
REMARK    6  A    between atoms: C_25  and  C_28 
ROOT
HETATM    1  C   UNK N   1     133.926 152.077 135.058  0.00  0.00     0.016 C 
HETATM    2  C   UNK N   1     133.427 152.525 136.514  0.00  0.00     0.075 C 
HETATM    3  C   UNK N   1     134.964 153.046 134.361  0.00  0.00    -0.043 C 
HETATM    4  C   UNK N   1     134.765 152.639 137.335  0.00  0.00     0.025 C 
HETATM    5  C   UNK N   1     136.167 153.228 135.323  0.00  0.00     0.009 C 
HETATM    6  C   UNK N   1     132.748 151.658 134.174  0.00  0.00     0.011 C 
HETATM    7  C   UNK N   1     135.750 153.659 136.722  0.00  0.00     0.002 C 
HETATM    8  C   UNK N   1     132.467 151.452 137.100  0.00  0.00     0.003 A 
HETATM    9  C   UNK N   1     132.085 150.420 134.769  0.00  0.00     0.040 C 
HETATM   10  C   UNK N   1     134.352 154.408 133.965  0.00  0.00     0.015 C 
HETATM   11  C   UNK N   1     135.544 152.408 133.069  0.00  0.00     0.015 C 
HETATM   12  C   UNK N   1     131.863 150.473 136.261  0.00  0.00    -0.047 A 
HETATM   13  C   UNK N   1     132.116 151.465 138.484  0.00  0.00     0.107 A 
HETATM   14  C   UNK N   1     131.005 149.514 136.805  0.00  0.00     0.018 A 
HETATM   15  C   UNK N   1     130.690 149.501 138.168  0.00  0.00    -0.018 A 
HETATM   16  C   UNK N   1     131.243 150.478 139.015  0.00  0.00     0.106 A 
ENDROOT
BRANCH   2  17
HETATM   17  C   UNK N   1     132.552 153.811 136.578  0.00  0.00     0.231 C 
HETATM   18  O   UNK N   1     131.491 153.824 135.973  0.00  0.00    -0.272 OA
HETATM   19  N   UNK N   1     132.883 154.892 137.356  0.00  0.00    -0.356 N 
HETATM   20  H   UNK N   1     133.753 154.914 137.896  0.00  0.00     0.162 HD
BRANCH  19  21
HETATM   21  C   UNK N   1     132.018 156.058 137.458  0.00  0.00     0.162 C 
BRANCH  21  22
HETATM   22  C   UNK N   1     132.787 157.306 137.835  0.00  0.00    -0.025 A 
HETATM   23  C   UNK N   1     134.183 157.354 137.685  0.00  0.00     0.011 A 
HETATM   24  C   UNK N   1     134.877 158.527 137.990  0.00  0.00     0.018 A 
HETATM   25  C   UNK N   1     134.173 159.642 138.449  0.00  0.00     0.087 A 
HETATM   26  N   UNK N   1     132.823 159.579 138.597  0.00  0.00    -0.375 N 
HETATM   27  C   UNK N   1     132.121 158.451 138.302  0.00  0.00     0.096 A 
ATOM     28  HN  UNK N   1     132.322 160.400 138.939  1.00  0.00     0.164 HD
ENDBRANCH  21  22
ENDBRANCH  19  21
ENDBRANCH   2  17
BRANCH  13  29
HETATM   29  O   UNK N   1     132.616 152.439 139.278  0.00  0.00    -0.357 OA
HETATM   30  H   UNK N   1     132.203 153.292 139.450  0.00  0.00     0.218 HD
ENDBRANCH  13  29
BRANCH  16  31
HETATM   31  O   UNK N   1     130.915 150.454 140.330  0.00  0.00    -0.357 OA
HETATM   32  H   UNK N   1     131.394 149.976 141.016  0.00  0.00     0.218 HD
ENDBRANCH  16  31
BRANCH  15  33
HETATM   33  C   UNK N   1     129.731 148.447 138.716  0.00  0.00     0.013 C 
HETATM   34  C   UNK N   1     130.109 147.043 138.227  0.00  0.00     0.015 C 
HETATM   35  C   UNK N   1     128.282 148.788 138.344  0.00  0.00     0.015 C 
ENDBRANCH  15  33
TORSDOF 6
ENDMDL
MODEL 6
REMARK VINA RESULT:      -6.9     54.677     56.271
REMARK  6 active torsions:
REMARK  status: ('A' for Active; 'I' for Inactive)
REMARK    1  A    between atoms: O_2  and  C_20 
REMARK    2  A    between atoms: O_3  and  C_23 
REMARK       I    between atoms: N_4  and  C_19 
REMARK    3  A    between atoms: N_4  and  C_25 
REMARK    4  A    between atoms: C_8  and  C_19 
REMARK    5  A    between atoms: C_22  and  C_24 
REMARK    6  A    between atoms: C_25  and  C_28 
ROOT
HETATM    1  C   UNK N   1     158.678 120.961 153.236  0.00  0.00     0.016 C 
HETATM    2  C   UNK N   1     157.953 122.365 153.509  0.00  0.00     0.075 C 
HETATM    3  C   UNK N   1     157.832 119.673 153.588  0.00  0.00    -0.043 C 
HETATM    4  C   UNK N   1     156.643 122.268 152.641  0.00  0.00     0.025 C 
HETATM    5  C   UNK N   1     156.490 119.757 152.815  0.00  0.00     0.009 C 
HETATM    6  C   UNK N   1     160.106 120.960 153.789  0.00  0.00     0.011 C 
HETATM    7  C   UNK N   1     155.754 121.070 153.042  0.00  0.00     0.002 C 
HETATM    8  C   UNK N   1     158.872 123.534 153.058  0.00  0.00     0.003 A 
HETATM    9  C   UNK N   1     160.939 121.995 153.039  0.00  0.00     0.040 C 
HETATM   10  C   UNK N   1     157.595 119.497 155.105  0.00  0.00     0.015 C 
HETATM   11  C   UNK N   1     158.536 118.385 153.079  0.00  0.00     0.015 C 
HETATM   12  C   UNK N   1     160.263 123.328 152.835  0.00  0.00    -0.047 A 
HETATM   13  C   UNK N   1     158.355 124.859 152.923  0.00  0.00     0.107 A 
HETATM   14  C   UNK N   1     161.075 124.390 152.428  0.00  0.00     0.018 A 
HETATM   15  C   UNK N   1     160.562 125.681 152.256  0.00  0.00    -0.018 A 
HETATM   16  C   UNK N   1     159.199 125.922 152.505  0.00  0.00     0.106 A 
ENDROOT
BRANCH   2  17
HETATM   17  C   UNK N   1     157.681 122.723 154.999  0.00  0.00     0.231 C 
HETATM   18  O   UNK N   1     158.614 122.684 155.787  0.00  0.00    -0.272 OA
HETATM   19  N   UNK N   1     156.460 123.164 155.443  0.00  0.00    -0.356 N 
HETATM   20  H   UNK N   1     155.656 123.233 154.811  0.00  0.00     0.162 HD
BRANCH  19  21
HETATM   21  C   UNK N   1     156.242 123.561 156.826  0.00  0.00     0.162 C 
BRANCH  21  22
HETATM   22  C   UNK N   1     154.894 123.108 157.343  0.00  0.00    -0.025 A 
HETATM   23  C   UNK N   1     154.170 122.113 156.666  0.00  0.00     0.011 A 
HETATM   24  C   UNK N   1     152.949 121.668 157.179  0.00  0.00     0.018 A 
HETATM   25  C   UNK N   1     152.457 122.226 158.360  0.00  0.00     0.087 A 
HETATM   26  N   UNK N   1     153.164 123.194 159.001  0.00  0.00    -0.375 N 
HETATM   27  C   UNK N   1     154.358 123.641 158.526  0.00  0.00     0.096 A 
ATOM     28  HN  UNK N   1     152.788 123.597 159.860  1.00  0.00     0.164 HD
ENDBRANCH  21  22
ENDBRANCH  19  21
ENDBRANCH   2  17
BRANCH  13  29
HETATM   29  O   UNK N   1     157.054 125.087 153.212  0.00  0.00    -0.357 OA
HETATM   30  H   UNK N   1     156.302 124.620 152.831  0.00  0.00     0.218 HD
ENDBRANCH  13  29
BRANCH  16  31
HETATM   31  O   UNK N   1     158.726 127.181 152.344  0.00  0.00    -0.357 OA
HETATM   32  H   UNK N   1     158.705 127.668 151.513  0.00  0.00     0.218 HD
ENDBRANCH  16  31
BRANCH  15  33
HETATM   33  C   UNK N   1     161.489 126.816 151.830  0.00  0.00     0.013 C 
HETATM   34  C   UNK N   1     162.623 126.301 150.935  0.00  0.00     0.015 C 
HETATM   35  C   UNK N   1     162.046 127.550 153.057  0.00  0.00     0.015 C 
ENDBRANCH  15  33
TORSDOF 6
ENDMDL
MODEL 7
REMARK VINA RESULT:      -6.9     36.207     39.119
REMARK  6 active torsions:
REMARK  status: ('A' for Active; 'I' for Inactive)
REMARK    1  A    between atoms: O_2  and  C_20 
REMARK    2  A    between atoms: O_3  and  C_23 
REMARK       I    between atoms: N_4  and  C_19 
REMARK    3  A    between atoms: N_4  and  C_25 
REMARK    4  A    between atoms: C_8  and  C_19 
REMARK    5  A    between atoms: C_22  and  C_24 
REMARK    6  A    between atoms: C_25  and  C_28 
ROOT
HETATM    1  C   UNK N   1     135.696 141.480 152.778  0.00  0.00     0.016 C 
HETATM    2  C   UNK N   1     136.260 140.440 151.695  0.00  0.00     0.075 C 
HETATM    3  C   UNK N   1     136.736 142.543 153.314  0.00  0.00    -0.043 C 
HETATM    4  C   UNK N   1     136.792 141.373 150.544  0.00  0.00     0.025 C 
HETATM    5  C   UNK N   1     137.328 143.291 152.091  0.00  0.00     0.009 C 
HETATM    6  C   UNK N   1     134.894 140.762 153.868  0.00  0.00     0.011 C 
HETATM    7  C   UNK N   1     137.884 142.351 151.031  0.00  0.00     0.002 C 
HETATM    8  C   UNK N   1     135.118 139.503 151.213  0.00  0.00     0.003 A 
HETATM    9  C   UNK N   1     133.658 140.120 153.246  0.00  0.00     0.040 C 
HETATM   10  C   UNK N   1     137.851 141.919 154.182  0.00  0.00     0.015 C 
HETATM   11  C   UNK N   1     136.033 143.627 154.176  0.00  0.00     0.015 C 
HETATM   12  C   UNK N   1     133.908 139.382 151.953  0.00  0.00    -0.047 A 
HETATM   13  C   UNK N   1     135.283 138.689 150.051  0.00  0.00     0.107 A 
HETATM   14  C   UNK N   1     132.890 138.537 151.504  0.00  0.00     0.018 A 
HETATM   15  C   UNK N   1     133.035 137.768 150.344  0.00  0.00    -0.018 A 
HETATM   16  C   UNK N   1     134.234 137.839 149.612  0.00  0.00     0.106 A 
ENDROOT
BRANCH   2  17
HETATM   17  C   UNK N   1     137.321 139.422 152.205  0.00  0.00     0.231 C 
HETATM   18  O   UNK N   1     138.377 139.328 151.599  0.00  0.00    -0.272 OA
HETATM   19  N   UNK N   1     137.152 138.691 153.354  0.00  0.00    -0.356 N 
HETATM   20  H   UNK N   1     136.290 138.754 153.905  0.00  0.00     0.162 HD
BRANCH  19  21
HETATM   21  C   UNK N   1     138.184 137.795 153.853  0.00  0.00     0.162 C 
BRANCH  21  22
HETATM   22  C   UNK N   1     138.647 138.177 155.242  0.00  0.00    -0.025 A 
HETATM   23  C   UNK N   1     137.830 138.960 156.074  0.00  0.00     0.011 A 
HETATM   24  C   UNK N   1     138.245 139.266 157.372  0.00  0.00     0.018 A 
HETATM   25  C   UNK N   1     139.478 138.794 157.827  0.00  0.00     0.087 A 
HETATM   26  N   UNK N   1     140.263 138.044 157.009  0.00  0.00    -0.375 N 
HETATM   27  C   UNK N   1     139.879 137.726 155.742  0.00  0.00     0.096 A 
ATOM     28  HN  UNK N   1     141.164 137.711 157.353  1.00  0.00     0.164 HD
ENDBRANCH  21  22
ENDBRANCH  19  21
ENDBRANCH   2  17
BRANCH  13  29
HETATM   29  O   UNK N   1     136.459 138.730 149.384  0.00  0.00    -0.357 OA
HETATM   30  H   UNK N   1     136.771 138.073 148.753  0.00  0.00     0.218 HD
ENDBRANCH  13  29
BRANCH  16  31
HETATM   31  O   UNK N   1     134.357 137.077 148.498  0.00  0.00    -0.357 OA
HETATM   32  H   UNK N   1     133.713 136.431 148.190  0.00  0.00     0.218 HD
ENDBRANCH  16  31
BRANCH  15  33
HETATM   33  C   UNK N   1     131.905 136.841 149.900  0.00  0.00     0.013 C 
HETATM   34  C   UNK N   1     130.837 137.608 149.110  0.00  0.00     0.015 C 
HETATM   35  C   UNK N   1     131.288 136.124 151.109  0.00  0.00     0.015 C 
ENDBRANCH  15  33
TORSDOF 6
ENDMDL
MODEL 8
REMARK VINA RESULT:      -6.9     43.171     45.859
REMARK  6 active torsions:
REMARK  status: ('A' for Active; 'I' for Inactive)
REMARK    1  A    between atoms: O_2  and  C_20 
REMARK    2  A    between atoms: O_3  and  C_23 
REMARK       I    between atoms: N_4  and  C_19 
REMARK    3  A    between atoms: N_4  and  C_25 
REMARK    4  A    between atoms: C_8  and  C_19 
REMARK    5  A    between atoms: C_22  and  C_24 
REMARK    6  A    between atoms: C_25  and  C_28 
ROOT
HETATM    1  C   UNK N   1     133.845 151.970 134.142  0.00  0.00     0.016 C 
HETATM    2  C   UNK N   1     133.968 152.758 135.533  0.00  0.00     0.075 C 
HETATM    3  C   UNK N   1     134.668 152.575 132.936  0.00  0.00    -0.043 C 
HETATM    4  C   UNK N   1     135.517 152.750 135.817  0.00  0.00     0.025 C 
HETATM    5  C   UNK N   1     136.152 152.684 133.376  0.00  0.00     0.009 C 
HETATM    6  C   UNK N   1     132.385 151.642 133.820  0.00  0.00     0.011 C 
HETATM    7  C   UNK N   1     136.328 153.430 134.692  0.00  0.00     0.002 C 
HETATM    8  C   UNK N   1     133.164 152.017 136.637  0.00  0.00     0.003 A 
HETATM    9  C   UNK N   1     131.838 150.684 134.874  0.00  0.00     0.040 C 
HETATM   10  C   UNK N   1     134.125 153.939 132.454  0.00  0.00     0.015 C 
HETATM   11  C   UNK N   1     134.657 151.616 131.714  0.00  0.00     0.015 C 
HETATM   12  C   UNK N   1     132.182 151.044 136.299  0.00  0.00    -0.047 A 
HETATM   13  C   UNK N   1     133.344 152.344 138.016  0.00  0.00     0.107 A 
HETATM   14  C   UNK N   1     131.470 150.384 137.305  0.00  0.00     0.018 A 
HETATM   15  C   UNK N   1     131.673 150.676 138.658  0.00  0.00    -0.018 A 
HETATM   16  C   UNK N   1     132.610 151.659 139.020  0.00  0.00     0.106 A 
ENDROOT
BRANCH   2  17
HETATM   17  C   UNK N   1     133.340 154.182 135.576  0.00  0.00     0.231 C 
HETATM   18  O   UNK N   1     132.172 154.314 135.245  0.00  0.00    -0.272 OA
HETATM   19  N   UNK N   1     134.019 155.275 136.053  0.00  0.00    -0.356 N 
HETATM   20  H   UNK N   1     134.994 155.205 136.361  0.00  0.00     0.162 HD
BRANCH  19  21
HETATM   21  C   UNK N   1     133.393 156.585 136.152  0.00  0.00     0.162 C 
BRANCH  21  22
HETATM   22  C   UNK N   1     134.136 157.632 135.351  0.00  0.00    -0.025 A 
HETATM   23  C   UNK N   1     135.137 157.255 134.441  0.00  0.00     0.011 A 
HETATM   24  C   UNK N   1     135.782 158.226 133.671  0.00  0.00     0.018 A 
HETATM   25  C   UNK N   1     135.428 159.568 133.821  0.00  0.00     0.087 A 
HETATM   26  N   UNK N   1     134.463 159.921 134.711  0.00  0.00    -0.375 N 
HETATM   27  C   UNK N   1     133.814 158.995 135.469  0.00  0.00     0.096 A 
ATOM     28  HN  UNK N   1     134.219 160.906 134.815  1.00  0.00     0.164 HD
ENDBRANCH  21  22
ENDBRANCH  19  21
ENDBRANCH   2  17
BRANCH  13  29
HETATM   29  O   UNK N   1     134.213 153.326 138.348  0.00  0.00    -0.357 OA
HETATM   30  H   UNK N   1     135.122 153.401 138.038  0.00  0.00     0.218 HD
ENDBRANCH  13  29
BRANCH  16  31
HETATM   31  O   UNK N   1     132.783 151.934 140.336  0.00  0.00    -0.357 OA
HETATM   32  H   UNK N   1     133.140 151.325 140.991  0.00  0.00     0.218 HD
ENDBRANCH  16  31
BRANCH  15  33
HETATM   33  C   UNK N   1     130.857 149.946 139.723  0.00  0.00     0.013 C 
HETATM   34  C   UNK N   1     131.396 148.530 139.961  0.00  0.00     0.015 C 
HETATM   35  C   UNK N   1     129.372 149.913 139.339  0.00  0.00     0.015 C 
ENDBRANCH  15  33
TORSDOF 6
ENDMDL
MODEL 9
REMARK VINA RESULT:      -6.8     28.837     31.294
REMARK  6 active torsions:
REMARK  status: ('A' for Active; 'I' for Inactive)
REMARK    1  A    between atoms: O_2  and  C_20 
REMARK    2  A    between atoms: O_3  and  C_23 
REMARK       I    between atoms: N_4  and  C_19 
REMARK    3  A    between atoms: N_4  and  C_25 
REMARK    4  A    between atoms: C_8  and  C_19 
REMARK    5  A    between atoms: C_22  and  C_24 
REMARK    6  A    between atoms: C_25  and  C_28 
ROOT
HETATM    1  C   UNK N   1     151.540 158.558 155.319  0.00  0.00     0.016 C 
HETATM    2  C   UNK N   1     150.059 158.591 154.706  0.00  0.00     0.075 C 
HETATM    3  C   UNK N   1     152.718 158.544 154.265  0.00  0.00    -0.043 C 
HETATM    4  C   UNK N   1     150.066 159.890 153.816  0.00  0.00     0.025 C 
HETATM    5  C   UNK N   1     152.538 159.769 153.331  0.00  0.00     0.009 C 
HETATM    6  C   UNK N   1     151.657 157.505 156.424  0.00  0.00     0.011 C 
HETATM    7  C   UNK N   1     151.148 159.848 152.715  0.00  0.00     0.002 C 
HETATM    8  C   UNK N   1     149.010 158.668 155.851  0.00  0.00     0.003 A 
HETATM    9  C   UNK N   1     150.749 157.890 157.588  0.00  0.00     0.040 C 
HETATM   10  C   UNK N   1     152.795 157.229 153.457  0.00  0.00     0.015 C 
HETATM   11  C   UNK N   1     154.093 158.738 154.961  0.00  0.00     0.015 C 
HETATM   12  C   UNK N   1     149.365 158.345 157.191  0.00  0.00    -0.047 A 
HETATM   13  C   UNK N   1     147.649 158.999 155.574  0.00  0.00     0.107 A 
HETATM   14  C   UNK N   1     148.411 158.422 158.209  0.00  0.00     0.018 A 
HETATM   15  C   UNK N   1     147.086 158.784 157.945  0.00  0.00    -0.018 A 
HETATM   16  C   UNK N   1     146.698 159.073 156.625  0.00  0.00     0.106 A 
ENDROOT
BRANCH   2  17
HETATM   17  C   UNK N   1     149.603 157.318 153.935  0.00  0.00     0.231 C 
HETATM   18  O   UNK N   1     149.599 156.249 154.526  0.00  0.00    -0.272 OA
HETATM   19  N   UNK N   1     149.124 157.364 152.650  0.00  0.00    -0.356 N 
HETATM   20  H   UNK N   1     149.089 158.243 152.124  0.00  0.00     0.162 HD
BRANCH  19  21
HETATM   21  C   UNK N   1     148.636 156.174 151.969  0.00  0.00     0.162 C 
BRANCH  21  22
HETATM   22  C   UNK N   1     149.557 155.743 150.847  0.00  0.00    -0.025 A 
HETATM   23  C   UNK N   1     150.687 156.509 150.520  0.00  0.00     0.011 A 
HETATM   24  C   UNK N   1     151.557 156.076 149.516  0.00  0.00     0.018 A 
HETATM   25  C   UNK N   1     151.287 154.885 148.841  0.00  0.00     0.087 A 
HETATM   26  N   UNK N   1     150.184 154.156 149.162  0.00  0.00    -0.375 N 
HETATM   27  C   UNK N   1     149.324 154.552 150.140  0.00  0.00     0.096 A 
ATOM     28  HN  UNK N   1     149.997 153.290 148.656  1.00  0.00     0.164 HD
ENDBRANCH  21  22
ENDBRANCH  19  21
ENDBRANCH   2  17
BRANCH  13  29
HETATM   29  O   UNK N   1     147.278 159.227 154.293  0.00  0.00    -0.357 OA
HETATM   30  H   UNK N   1     147.874 159.318 153.542  0.00  0.00     0.218 HD
ENDBRANCH  13  29
BRANCH  16  31
HETATM   31  O   UNK N   1     145.406 159.411 156.391  0.00  0.00    -0.357 OA
HETATM   32  H   UNK N   1     144.977 160.218 156.693  0.00  0.00     0.218 HD
ENDBRANCH  16  31
BRANCH  15  33
HETATM   33  C   UNK N   1     146.071 158.835 159.085  0.00  0.00     0.013 C 
HETATM   34  C   UNK N   1     146.130 160.179 159.821  0.00  0.00     0.015 C 
HETATM   35  C   UNK N   1     146.288 157.666 160.055  0.00  0.00     0.015 C 
ENDBRANCH  15  33
TORSDOF 6
ENDMDL
