MODEL 1
REMARK VINA RESULT:      -7.2      0.000      0.000
REMARK  4 active torsions:
REMARK  status: ('A' for Active; 'I' for Inactive)
REMARK    1  A    between atoms: O_2  and  C_19 
REMARK    2  A    between atoms: O_3  and  C_22 
REMARK       I    between atoms: N_5  and  C_18 
REMARK       I    between atoms: N_5  and  C_24 
REMARK    3  A    between atoms: C_7  and  C_18 
REMARK    4  A    between atoms: C_21  and  C_23 
ROOT
HETATM    1  C   UNK N   1     153.981 132.716 167.805  0.00  0.00     0.016 C 
HETATM    2  C   UNK N   1     155.027 131.522 167.602  0.00  0.00     0.076 C 
HETATM    3  C   UNK N   1     152.604 132.306 168.469  0.00  0.00    -0.043 C 
HETATM    4  C   UNK N   1     155.239 130.983 169.066  0.00  0.00     0.025 C 
HETATM    5  C   UNK N   1     152.913 131.598 169.814  0.00  0.00     0.009 C 
HETATM    6  C   UNK N   1     153.860 133.571 166.538  0.00  0.00     0.011 C 
HETATM    7  C   UNK N   1     153.924 130.460 169.678  0.00  0.00     0.002 C 
HETATM    8  C   UNK N   1     156.349 132.059 166.980  0.00  0.00     0.003 A 
HETATM    9  C   UNK N   1     155.198 134.246 166.250  0.00  0.00     0.040 C 
HETATM   10  C   UNK N   1     151.767 133.566 168.825  0.00  0.00     0.015 C 
HETATM   11  C   UNK N   1     151.721 131.416 167.565  0.00  0.00     0.015 C 
HETATM   12  C   UNK N   1     156.402 133.343 166.370  0.00  0.00    -0.047 A 
HETATM   13  C   UNK N   1     157.533 131.258 166.967  0.00  0.00     0.107 A 
HETATM   14  C   UNK N   1     157.604 133.821 165.836  0.00  0.00     0.018 A 
HETATM   15  C   UNK N   1     158.773 133.052 165.855  0.00  0.00    -0.018 A 
HETATM   16  C   UNK N   1     158.742 131.764 166.418  0.00  0.00     0.106 A 
ENDROOT
BRANCH   2  17
HETATM   17  C   UNK N   1     154.583 130.411 166.608  0.00  0.00     0.238 C 
HETATM   18  O   UNK N   1     154.763 129.244 166.921  0.00  0.00    -0.272 OA
HETATM   19  N   UNK N   1     153.876 130.701 165.463  0.00  0.00    -0.297 N 
HETATM   20  C   UNK N   1     153.379 129.756 164.609  0.00  0.00     0.220 C 
HETATM   21  H   UNK N   1     153.656 131.676 165.237  0.00  0.00     0.171 HD
HETATM   22  O   UNK N   1     153.604 128.565 164.775  0.00  0.00    -0.274 OA
HETATM   23  C   UNK N   1     152.511 130.184 163.461  0.00  0.00     0.117 C 
ENDBRANCH   2  17
BRANCH  13  24
HETATM   24  O   UNK N   1     157.488 130.008 167.480  0.00  0.00    -0.357 OA
HETATM   25  H   UNK N   1     156.902 129.707 168.183  0.00  0.00     0.218 HD
ENDBRANCH  13  24
BRANCH  16  26
HETATM   26  O   UNK N   1     159.883 131.032 166.415  0.00  0.00    -0.357 OA
HETATM   27  H   UNK N   1     160.767 131.373 166.246  0.00  0.00     0.218 HD
ENDBRANCH  16  26
BRANCH  15  28
HETATM   28  C   UNK N   1     160.060 133.606 165.249  0.00  0.00     0.013 C 
HETATM   29  C   UNK N   1     160.166 135.121 165.460  0.00  0.00     0.015 C 
HETATM   30  C   UNK N   1     160.158 133.249 163.761  0.00  0.00     0.015 C 
ENDBRANCH  15  28
TORSDOF 4
ENDMDL
MODEL 2
REMARK VINA RESULT:      -7.2     25.569     29.374
REMARK  4 active torsions:
REMARK  status: ('A' for Active; 'I' for Inactive)
REMARK    1  A    between atoms: O_2  and  C_19 
REMARK    2  A    between atoms: O_3  and  C_22 
REMARK       I    between atoms: N_5  and  C_18 
REMARK       I    between atoms: N_5  and  C_24 
REMARK    3  A    between atoms: C_7  and  C_18 
REMARK    4  A    between atoms: C_21  and  C_23 
ROOT
HETATM    1  C   UNK N   1     134.689 139.178 150.297  0.00  0.00     0.016 C 
HETATM    2  C   UNK N   1     134.661 138.394 148.903  0.00  0.00     0.076 C 
HETATM    3  C   UNK N   1     136.089 139.795 150.701  0.00  0.00    -0.043 C 
HETATM    4  C   UNK N   1     135.119 139.491 147.870  0.00  0.00     0.025 C 
HETATM    5  C   UNK N   1     136.565 140.704 149.539  0.00  0.00     0.009 C 
HETATM    6  C   UNK N   1     133.992 138.372 151.402  0.00  0.00     0.011 C 
HETATM    7  C   UNK N   1     136.538 140.008 148.179  0.00  0.00     0.002 C 
HETATM    8  C   UNK N   1     133.225 137.872 148.602  0.00  0.00     0.003 A 
HETATM    9  C   UNK N   1     132.515 138.207 151.056  0.00  0.00     0.040 C 
HETATM   10  C   UNK N   1     135.948 140.716 151.944  0.00  0.00     0.015 C 
HETATM   11  C   UNK N   1     137.158 138.732 151.046  0.00  0.00     0.015 C 
HETATM   12  C   UNK N   1     132.239 137.812 149.626  0.00  0.00    -0.047 A 
HETATM   13  C   UNK N   1     132.874 137.398 147.299  0.00  0.00     0.107 A 
HETATM   14  C   UNK N   1     130.947 137.363 149.333  0.00  0.00     0.018 A 
HETATM   15  C   UNK N   1     130.591 136.933 148.051  0.00  0.00    -0.018 A 
HETATM   16  C   UNK N   1     131.554 136.945 147.027  0.00  0.00     0.106 A 
ENDROOT
BRANCH   2  17
HETATM   17  C   UNK N   1     135.534 137.108 148.844  0.00  0.00     0.238 C 
HETATM   18  O   UNK N   1     135.268 136.188 149.604  0.00  0.00    -0.272 OA
HETATM   19  N   UNK N   1     136.496 136.926 147.876  0.00  0.00    -0.297 N 
HETATM   20  C   UNK N   1     137.220 135.777 147.721  0.00  0.00     0.220 C 
HETATM   21  H   UNK N   1     136.667 137.665 147.188  0.00  0.00     0.171 HD
HETATM   22  O   UNK N   1     137.108 134.842 148.503  0.00  0.00    -0.274 OA
HETATM   23  C   UNK N   1     138.149 135.644 146.549  0.00  0.00     0.117 C 
ENDBRANCH   2  17
BRANCH  13  24
HETATM   24  O   UNK N   1     133.814 137.382 146.329  0.00  0.00    -0.357 OA
HETATM   25  H   UNK N   1     134.380 136.636 146.104  0.00  0.00     0.218 HD
ENDBRANCH  13  24
BRANCH  16  26
HETATM   26  O   UNK N   1     131.192 136.513 145.795  0.00  0.00    -0.357 OA
HETATM   27  H   UNK N   1     130.743 135.683 145.601  0.00  0.00     0.218 HD
ENDBRANCH  16  26
BRANCH  15  28
HETATM   28  C   UNK N   1     129.172 136.436 147.778  0.00  0.00     0.013 C 
HETATM   29  C   UNK N   1     128.224 137.603 147.478  0.00  0.00     0.015 C 
HETATM   30  C   UNK N   1     128.657 135.595 148.952  0.00  0.00     0.015 C 
ENDBRANCH  15  28
TORSDOF 4
ENDMDL
MODEL 3
REMARK VINA RESULT:      -7.1     13.735     16.496
REMARK  4 active torsions:
REMARK  status: ('A' for Active; 'I' for Inactive)
REMARK    1  A    between atoms: O_2  and  C_19 
REMARK    2  A    between atoms: O_3  and  C_22 
REMARK       I    between atoms: N_5  and  C_18 
REMARK       I    between atoms: N_5  and  C_24 
REMARK    3  A    between atoms: C_7  and  C_18 
REMARK    4  A    between atoms: C_21  and  C_23 
ROOT
HETATM    1  C   UNK N   1     158.787 120.850 153.196  0.00  0.00     0.016 C 
HETATM    2  C   UNK N   1     158.034 122.208 153.580  0.00  0.00     0.076 C 
HETATM    3  C   UNK N   1     158.004 119.519 153.539  0.00  0.00    -0.043 C 
HETATM    4  C   UNK N   1     156.691 122.112 152.764  0.00  0.00     0.025 C 
HETATM    5  C   UNK N   1     156.610 119.595 152.864  0.00  0.00     0.009 C 
HETATM    6  C   UNK N   1     160.251 120.877 153.654  0.00  0.00     0.011 C 
HETATM    7  C   UNK N   1     155.856 120.885 153.182  0.00  0.00     0.002 C 
HETATM    8  C   UNK N   1     158.886 123.441 153.156  0.00  0.00     0.003 A 
HETATM    9  C   UNK N   1     160.996 121.982 152.910  0.00  0.00     0.040 C 
HETATM   10  C   UNK N   1     158.718 118.284 152.923  0.00  0.00     0.015 C 
HETATM   11  C   UNK N   1     157.870 119.253 155.056  0.00  0.00     0.015 C 
HETATM   12  C   UNK N   1     160.265 123.300 152.833  0.00  0.00    -0.047 A 
HETATM   13  C   UNK N   1     158.317 124.752 153.124  0.00  0.00     0.107 A 
HETATM   14  C   UNK N   1     161.011 124.413 152.432  0.00  0.00     0.018 A 
HETATM   15  C   UNK N   1     160.446 125.691 152.365  0.00  0.00    -0.018 A 
HETATM   16  C   UNK N   1     159.096 125.868 152.715  0.00  0.00     0.106 A 
ENDROOT
BRANCH   2  17
HETATM   17  C   UNK N   1     157.801 122.433 155.100  0.00  0.00     0.238 C 
HETATM   18  O   UNK N   1     158.775 122.590 155.822  0.00  0.00    -0.272 OA
HETATM   19  N   UNK N   1     156.539 122.598 155.626  0.00  0.00    -0.297 N 
HETATM   20  C   UNK N   1     156.288 122.896 156.936  0.00  0.00     0.220 C 
HETATM   21  H   UNK N   1     155.723 122.545 155.009  0.00  0.00     0.171 HD
HETATM   22  O   UNK N   1     157.189 122.961 157.761  0.00  0.00    -0.274 OA
HETATM   23  C   UNK N   1     154.878 123.182 157.369  0.00  0.00     0.117 C 
ENDBRANCH   2  17
BRANCH  13  24
HETATM   24  O   UNK N   1     157.028 124.919 153.493  0.00  0.00    -0.357 OA
HETATM   25  H   UNK N   1     156.563 124.411 154.167  0.00  0.00     0.218 HD
ENDBRANCH  13  24
BRANCH  16  26
HETATM   26  O   UNK N   1     158.572 127.116 152.654  0.00  0.00    -0.357 OA
HETATM   27  H   UNK N   1     157.634 127.332 152.667  0.00  0.00     0.218 HD
ENDBRANCH  16  26
BRANCH  15  28
HETATM   28  C   UNK N   1     161.301 126.882 151.936  0.00  0.00     0.013 C 
HETATM   29  C   UNK N   1     162.407 126.450 150.965  0.00  0.00     0.015 C 
HETATM   30  C   UNK N   1     161.890 127.597 153.158  0.00  0.00     0.015 C 
ENDBRANCH  15  28
TORSDOF 4
ENDMDL
MODEL 4
REMARK VINA RESULT:      -7.1     42.574     44.034
REMARK  4 active torsions:
REMARK  status: ('A' for Active; 'I' for Inactive)
REMARK    1  A    between atoms: O_2  and  C_19 
REMARK    2  A    between atoms: O_3  and  C_22 
REMARK       I    between atoms: N_5  and  C_18 
REMARK       I    between atoms: N_5  and  C_24 
REMARK    3  A    between atoms: C_7  and  C_18 
REMARK    4  A    between atoms: C_21  and  C_23 
ROOT
HETATM    1  C   UNK N   1     133.404 168.068 177.109  0.00  0.00     0.016 C 
HETATM    2  C   UNK N   1     133.330 168.004 178.707  0.00  0.00     0.076 C 
HETATM    3  C   UNK N   1     132.139 167.500 176.347  0.00  0.00    -0.043 C 
HETATM    4  C   UNK N   1     132.041 168.847 179.036  0.00  0.00     0.025 C 
HETATM    5  C   UNK N   1     130.886 168.243 176.879  0.00  0.00     0.009 C 
HETATM    6  C   UNK N   1     134.755 167.555 176.595  0.00  0.00     0.011 C 
HETATM    7  C   UNK N   1     130.778 168.229 178.403  0.00  0.00     0.002 C 
HETATM    8  C   UNK N   1     134.611 168.627 179.335  0.00  0.00     0.003 A 
HETATM    9  C   UNK N   1     135.870 168.471 177.092  0.00  0.00     0.040 C 
HETATM   10  C   UNK N   1     132.220 167.818 174.829  0.00  0.00     0.015 C 
HETATM   11  C   UNK N   1     131.972 165.969 176.480  0.00  0.00     0.015 C 
HETATM   12  C   UNK N   1     135.777 168.848 178.551  0.00  0.00    -0.047 A 
HETATM   13  C   UNK N   1     134.663 168.952 180.727  0.00  0.00     0.107 A 
HETATM   14  C   UNK N   1     136.912 169.430 179.126  0.00  0.00     0.018 A 
HETATM   15  C   UNK N   1     136.952 169.782 180.479  0.00  0.00    -0.018 A 
HETATM   16  C   UNK N   1     135.828 169.540 181.288  0.00  0.00     0.106 A 
ENDROOT
BRANCH   2  17
HETATM   17  C   UNK N   1     133.286 166.573 179.314  0.00  0.00     0.238 C 
HETATM   18  O   UNK N   1     134.224 165.820 179.099  0.00  0.00    -0.272 OA
HETATM   19  N   UNK N   1     132.298 166.186 180.191  0.00  0.00    -0.297 N 
HETATM   20  C   UNK N   1     132.270 164.976 180.828  0.00  0.00     0.220 C 
HETATM   21  H   UNK N   1     131.552 166.844 180.435  0.00  0.00     0.171 HD
HETATM   22  O   UNK N   1     133.102 164.111 180.592  0.00  0.00    -0.274 OA
HETATM   23  C   UNK N   1     131.214 164.714 181.863  0.00  0.00     0.117 C 
ENDBRANCH   2  17
BRANCH  13  24
HETATM   24  O   UNK N   1     133.590 168.687 181.505  0.00  0.00    -0.357 OA
HETATM   25  H   UNK N   1     132.801 169.233 181.583  0.00  0.00     0.218 HD
ENDBRANCH  13  24
BRANCH  16  26
HETATM   26  O   UNK N   1     135.893 169.878 182.599  0.00  0.00    -0.357 OA
HETATM   27  H   UNK N   1     135.149 170.151 183.145  0.00  0.00     0.218 HD
ENDBRANCH  16  26
BRANCH  15  28
HETATM   28  C   UNK N   1     138.217 170.402 181.069  0.00  0.00     0.013 C 
HETATM   29  C   UNK N   1     138.485 171.790 180.474  0.00  0.00     0.015 C 
HETATM   30  C   UNK N   1     139.422 169.475 180.867  0.00  0.00     0.015 C 
ENDBRANCH  15  28
TORSDOF 4
ENDMDL
MODEL 5
REMARK VINA RESULT:      -7.1     23.278     26.841
REMARK  4 active torsions:
REMARK  status: ('A' for Active; 'I' for Inactive)
REMARK    1  A    between atoms: O_2  and  C_19 
REMARK    2  A    between atoms: O_3  and  C_22 
REMARK       I    between atoms: N_5  and  C_18 
REMARK       I    between atoms: N_5  and  C_24 
REMARK    3  A    between atoms: C_7  and  C_18 
REMARK    4  A    between atoms: C_21  and  C_23 
ROOT
HETATM    1  C   UNK N   1     135.572 141.305 152.740  0.00  0.00     0.016 C 
HETATM    2  C   UNK N   1     136.141 140.272 151.657  0.00  0.00     0.076 C 
HETATM    3  C   UNK N   1     136.629 142.327 153.324  0.00  0.00    -0.043 C 
HETATM    4  C   UNK N   1     136.704 141.215 150.529  0.00  0.00     0.025 C 
HETATM    5  C   UNK N   1     137.285 143.071 152.132  0.00  0.00     0.009 C 
HETATM    6  C   UNK N   1     134.711 140.592 153.790  0.00  0.00     0.011 C 
HETATM    7  C   UNK N   1     137.828 142.129 151.058  0.00  0.00     0.002 C 
HETATM    8  C   UNK N   1     135.000 139.352 151.133  0.00  0.00     0.003 A 
HETATM    9  C   UNK N   1     133.482 139.989 153.116  0.00  0.00     0.040 C 
HETATM   10  C   UNK N   1     135.928 143.416 154.182  0.00  0.00     0.015 C 
HETATM   11  C   UNK N   1     137.701 141.665 154.221  0.00  0.00     0.015 C 
HETATM   12  C   UNK N   1     133.762 139.254 151.828  0.00  0.00    -0.047 A 
HETATM   13  C   UNK N   1     135.182 138.550 149.964  0.00  0.00     0.107 A 
HETATM   14  C   UNK N   1     132.738 138.440 151.330  0.00  0.00     0.018 A 
HETATM   15  C   UNK N   1     132.902 137.681 150.166  0.00  0.00    -0.018 A 
HETATM   16  C   UNK N   1     134.127 137.729 149.479  0.00  0.00     0.106 A 
ENDROOT
BRANCH   2  17
HETATM   17  C   UNK N   1     137.201 139.268 152.190  0.00  0.00     0.238 C 
HETATM   18  O   UNK N   1     138.277 139.195 151.614  0.00  0.00    -0.272 OA
HETATM   19  N   UNK N   1     137.015 138.568 153.361  0.00  0.00    -0.297 N 
HETATM   20  C   UNK N   1     137.956 137.750 153.923  0.00  0.00     0.220 C 
HETATM   21  H   UNK N   1     136.146 138.687 153.889  0.00  0.00     0.171 HD
HETATM   22  O   UNK N   1     139.020 137.523 153.363  0.00  0.00    -0.274 OA
HETATM   23  C   UNK N   1     137.693 137.140 155.269  0.00  0.00     0.117 C 
ENDBRANCH   2  17
BRANCH  13  24
HETATM   24  O   UNK N   1     136.374 138.576 149.327  0.00  0.00    -0.357 OA
HETATM   25  H   UNK N   1     136.507 138.508 148.375  0.00  0.00     0.218 HD
ENDBRANCH  13  24
BRANCH  16  26
HETATM   26  O   UNK N   1     134.269 136.977 148.360  0.00  0.00    -0.357 OA
HETATM   27  H   UNK N   1     133.617 136.359 148.014  0.00  0.00     0.218 HD
ENDBRANCH  16  26
BRANCH  15  28
HETATM   28  C   UNK N   1     131.763 136.796 149.666  0.00  0.00     0.013 C 
HETATM   29  C   UNK N   1     130.682 137.625 148.963  0.00  0.00     0.015 C 
HETATM   30  C   UNK N   1     131.166 135.976 150.817  0.00  0.00     0.015 C 
ENDBRANCH  15  28
TORSDOF 4
ENDMDL
MODEL 6
REMARK VINA RESULT:      -7.0     48.218     50.187
REMARK  4 active torsions:
REMARK  status: ('A' for Active; 'I' for Inactive)
REMARK    1  A    between atoms: O_2  and  C_19 
REMARK    2  A    between atoms: O_3  and  C_22 
REMARK       I    between atoms: N_5  and  C_18 
REMARK       I    between atoms: N_5  and  C_24 
REMARK    3  A    between atoms: C_7  and  C_18 
REMARK    4  A    between atoms: C_21  and  C_23 
ROOT
HETATM    1  C   UNK N   1     143.828 152.636 122.141  0.00  0.00     0.016 C 
HETATM    2  C   UNK N   1     142.832 152.643 123.394  0.00  0.00     0.076 C 
HETATM    3  C   UNK N   1     144.888 153.811 122.111  0.00  0.00    -0.043 C 
HETATM    4  C   UNK N   1     143.810 152.559 124.625  0.00  0.00     0.025 C 
HETATM    5  C   UNK N   1     145.671 153.784 123.449  0.00  0.00     0.009 C 
HETATM    6  C   UNK N   1     143.068 152.415 120.827  0.00  0.00     0.011 C 
HETATM    7  C   UNK N   1     144.764 153.769 124.679  0.00  0.00     0.002 C 
HETATM    8  C   UNK N   1     141.870 151.420 123.328  0.00  0.00     0.003 A 
HETATM    9  C   UNK N   1     142.422 151.033 120.841  0.00  0.00     0.040 C 
HETATM   10  C   UNK N   1     145.937 153.579 120.989  0.00  0.00     0.015 C 
HETATM   11  C   UNK N   1     144.262 155.203 121.864  0.00  0.00     0.015 C 
HETATM   12  C   UNK N   1     141.712 150.677 122.125  0.00  0.00    -0.047 A 
HETATM   13  C   UNK N   1     141.088 151.039 124.463  0.00  0.00     0.107 A 
HETATM   14  C   UNK N   1     140.862 149.567 122.089  0.00  0.00     0.018 A 
HETATM   15  C   UNK N   1     140.123 149.171 123.210  0.00  0.00    -0.018 A 
HETATM   16  C   UNK N   1     140.230 149.908 124.402  0.00  0.00     0.106 A 
ENDROOT
BRANCH   2  17
HETATM   17  C   UNK N   1     141.867 153.859 123.470  0.00  0.00     0.238 C 
HETATM   18  O   UNK N   1     141.124 154.075 122.524  0.00  0.00    -0.272 OA
HETATM   19  N   UNK N   1     141.731 154.607 124.618  0.00  0.00    -0.297 N 
HETATM   20  C   UNK N   1     140.827 155.622 124.769  0.00  0.00     0.220 C 
HETATM   21  H   UNK N   1     142.297 154.379 125.441  0.00  0.00     0.171 HD
HETATM   22  O   UNK N   1     140.118 155.988 123.842  0.00  0.00    -0.274 OA
HETATM   23  C   UNK N   1     140.677 156.282 126.110  0.00  0.00     0.117 C 
ENDBRANCH   2  17
BRANCH  13  24
HETATM   24  O   UNK N   1     141.171 151.772 125.596  0.00  0.00    -0.357 OA
HETATM   25  H   UNK N   1     141.519 152.667 125.664  0.00  0.00     0.218 HD
ENDBRANCH  13  24
BRANCH  16  26
HETATM   26  O   UNK N   1     139.496 149.514 125.471  0.00  0.00    -0.357 OA
HETATM   27  H   UNK N   1     139.150 148.628 125.618  0.00  0.00     0.218 HD
ENDBRANCH  16  26
BRANCH  15  28
HETATM   28  C   UNK N   1     139.195 147.961 123.123  0.00  0.00     0.013 C 
HETATM   29  C   UNK N   1     139.854 146.712 123.721  0.00  0.00     0.015 C 
HETATM   30  C   UNK N   1     138.759 147.713 121.674  0.00  0.00     0.015 C 
ENDBRANCH  15  28
TORSDOF 4
ENDMDL
MODEL 7
REMARK VINA RESULT:      -7.0     21.323     23.542
REMARK  4 active torsions:
REMARK  status: ('A' for Active; 'I' for Inactive)
REMARK    1  A    between atoms: O_2  and  C_19 
REMARK    2  A    between atoms: O_3  and  C_22 
REMARK       I    between atoms: N_5  and  C_18 
REMARK       I    between atoms: N_5  and  C_24 
REMARK    3  A    between atoms: C_7  and  C_18 
REMARK    4  A    between atoms: C_21  and  C_23 
ROOT
HETATM    1  C   UNK N   1     151.878 143.398 186.188  0.00  0.00     0.016 C 
HETATM    2  C   UNK N   1     151.892 142.142 187.180  0.00  0.00     0.076 C 
HETATM    3  C   UNK N   1     150.603 143.513 185.257  0.00  0.00    -0.043 C 
HETATM    4  C   UNK N   1     150.583 142.347 188.031  0.00  0.00     0.025 C 
HETATM    5  C   UNK N   1     149.345 143.503 186.164  0.00  0.00     0.009 C 
HETATM    6  C   UNK N   1     153.223 143.553 185.468  0.00  0.00     0.011 C 
HETATM    7  C   UNK N   1     149.320 142.332 187.146  0.00  0.00     0.002 C 
HETATM    8  C   UNK N   1     153.173 142.165 188.066  0.00  0.00     0.003 A 
HETATM    9  C   UNK N   1     154.316 143.852 186.489  0.00  0.00     0.040 C 
HETATM   10  C   UNK N   1     150.587 144.875 184.510  0.00  0.00     0.015 C 
HETATM   11  C   UNK N   1     150.520 142.406 184.182  0.00  0.00     0.015 C 
HETATM   12  C   UNK N   1     154.283 142.987 187.725  0.00  0.00    -0.047 A 
HETATM   13  C   UNK N   1     153.283 141.327 189.219  0.00  0.00     0.107 A 
HETATM   14  C   UNK N   1     155.417 143.013 188.545  0.00  0.00     0.018 A 
HETATM   15  C   UNK N   1     155.512 142.220 189.693  0.00  0.00    -0.018 A 
HETATM   16  C   UNK N   1     154.446 141.369 190.035  0.00  0.00     0.106 A 
ENDROOT
BRANCH   2  17
HETATM   17  C   UNK N   1     151.952 140.750 186.491  0.00  0.00     0.238 C 
HETATM   18  O   UNK N   1     152.904 140.499 185.767  0.00  0.00    -0.272 OA
HETATM   19  N   UNK N   1     151.045 139.756 186.781  0.00  0.00    -0.297 N 
HETATM   20  C   UNK N   1     151.112 138.486 186.278  0.00  0.00     0.220 C 
HETATM   21  H   UNK N   1     150.290 139.939 187.448  0.00  0.00     0.171 HD
HETATM   22  O   UNK N   1     151.962 138.169 185.457  0.00  0.00    -0.274 OA
HETATM   23  C   UNK N   1     150.144 137.448 186.767  0.00  0.00     0.117 C 
ENDBRANCH   2  17
BRANCH  13  24
HETATM   24  O   UNK N   1     152.268 140.487 189.522  0.00  0.00    -0.357 OA
HETATM   25  H   UNK N   1     152.085 140.113 190.391  0.00  0.00     0.218 HD
ENDBRANCH  13  24
BRANCH  16  26
HETATM   26  O   UNK N   1     154.564 140.601 191.145  0.00  0.00    -0.357 OA
HETATM   27  H   UNK N   1     154.262 139.692 191.232  0.00  0.00     0.218 HD
ENDBRANCH  16  26
BRANCH  15  28
HETATM   28  C   UNK N   1     156.774 142.269 190.552  0.00  0.00     0.013 C 
HETATM   29  C   UNK N   1     156.933 143.636 191.229  0.00  0.00     0.015 C 
HETATM   30  C   UNK N   1     158.012 141.921 189.717  0.00  0.00     0.015 C 
ENDBRANCH  15  28
TORSDOF 4
ENDMDL
MODEL 8
REMARK VINA RESULT:      -6.9     25.629     27.864
REMARK  4 active torsions:
REMARK  status: ('A' for Active; 'I' for Inactive)
REMARK    1  A    between atoms: O_2  and  C_19 
REMARK    2  A    between atoms: O_3  and  C_22 
REMARK       I    between atoms: N_5  and  C_18 
REMARK       I    between atoms: N_5  and  C_24 
REMARK    3  A    between atoms: C_7  and  C_18 
REMARK    4  A    between atoms: C_21  and  C_23 
ROOT
HETATM    1  C   UNK N   1     133.509 137.734 147.951  0.00  0.00     0.016 C 
HETATM    2  C   UNK N   1     133.743 137.737 149.534  0.00  0.00     0.076 C 
HETATM    3  C   UNK N   1     132.437 136.695 147.426  0.00  0.00    -0.043 C 
HETATM    4  C   UNK N   1     132.311 138.060 150.104  0.00  0.00     0.025 C 
HETATM    5  C   UNK N   1     131.110 136.950 148.187  0.00  0.00     0.009 C 
HETATM    6  C   UNK N   1     134.842 137.730 147.192  0.00  0.00     0.011 C 
HETATM    7  C   UNK N   1     131.283 136.983 149.705  0.00  0.00     0.002 C 
HETATM    8  C   UNK N   1     134.786 138.825 149.926  0.00  0.00     0.003 A 
HETATM    9  C   UNK N   1     135.600 139.020 147.490  0.00  0.00     0.040 C 
HETATM   10  C   UNK N   1     132.128 136.934 145.922  0.00  0.00     0.015 C 
HETATM   11  C   UNK N   1     132.883 135.221 147.567  0.00  0.00     0.015 C 
HETATM   12  C   UNK N   1     135.628 139.418 148.945  0.00  0.00    -0.047 A 
HETATM   13  C   UNK N   1     134.953 139.225 151.289  0.00  0.00     0.107 A 
HETATM   14  C   UNK N   1     136.544 140.411 149.310  0.00  0.00     0.018 A 
HETATM   15  C   UNK N   1     136.684 140.829 150.638  0.00  0.00    -0.018 A 
HETATM   16  C   UNK N   1     135.892 140.234 151.636  0.00  0.00     0.106 A 
ENDROOT
BRANCH   2  17
HETATM   17  C   UNK N   1     134.346 136.430 150.120  0.00  0.00     0.238 C 
HETATM   18  O   UNK N   1     135.429 136.048 149.702  0.00  0.00    -0.272 OA
HETATM   19  N   UNK N   1     133.765 135.775 151.184  0.00  0.00    -0.297 N 
HETATM   20  C   UNK N   1     134.307 134.681 151.799  0.00  0.00     0.220 C 
HETATM   21  H   UNK N   1     132.897 136.138 151.588  0.00  0.00     0.171 HD
HETATM   22  O   UNK N   1     135.329 134.155 151.381  0.00  0.00    -0.274 OA
HETATM   23  C   UNK N   1     133.651 134.129 153.032  0.00  0.00     0.117 C 
ENDBRANCH   2  17
BRANCH  13  24
HETATM   24  O   UNK N   1     134.212 138.625 152.247  0.00  0.00    -0.357 OA
HETATM   25  H   UNK N   1     134.061 137.678 152.334  0.00  0.00     0.218 HD
ENDBRANCH  13  24
BRANCH  16  26
HETATM   26  O   UNK N   1     136.053 140.645 152.917  0.00  0.00    -0.357 OA
HETATM   27  H   UNK N   1     136.275 141.540 153.195  0.00  0.00     0.218 HD
ENDBRANCH  16  26
BRANCH  15  28
HETATM   28  C   UNK N   1     137.706 141.906 150.995  0.00  0.00     0.013 C 
HETATM   29  C   UNK N   1     137.083 143.306 150.931  0.00  0.00     0.015 C 
HETATM   30  C   UNK N   1     138.938 141.809 150.086  0.00  0.00     0.015 C 
ENDBRANCH  15  28
TORSDOF 4
ENDMDL
MODEL 9
REMARK VINA RESULT:      -6.9     25.852     29.395
REMARK  4 active torsions:
REMARK  status: ('A' for Active; 'I' for Inactive)
REMARK    1  A    between atoms: O_2  and  C_19 
REMARK    2  A    between atoms: O_3  and  C_22 
REMARK       I    between atoms: N_5  and  C_18 
REMARK       I    between atoms: N_5  and  C_24 
REMARK    3  A    between atoms: C_7  and  C_18 
REMARK    4  A    between atoms: C_21  and  C_23 
ROOT
HETATM    1  C   UNK N   1     132.093 137.121 147.078  0.00  0.00     0.016 C 
HETATM    2  C   UNK N   1     132.048 137.189 148.676  0.00  0.00     0.076 C 
HETATM    3  C   UNK N   1     130.879 136.368 146.396  0.00  0.00    -0.043 C 
HETATM    4  C   UNK N   1     130.687 137.929 148.961  0.00  0.00     0.025 C 
HETATM    5  C   UNK N   1     129.567 137.030 146.891  0.00  0.00     0.009 C 
HETATM    6  C   UNK N   1     133.480 136.699 146.578  0.00  0.00     0.011 C 
HETATM    7  C   UNK N   1     129.483 137.138 148.413  0.00  0.00     0.002 C 
HETATM    8  C   UNK N   1     133.270 137.986 149.220  0.00  0.00     0.003 A 
HETATM    9  C   UNK N   1     134.506 137.758 146.970  0.00  0.00     0.040 C 
HETATM   10  C   UNK N   1     130.907 136.559 144.855  0.00  0.00     0.015 C 
HETATM   11  C   UNK N   1     130.866 134.845 146.663  0.00  0.00     0.015 C 
HETATM   12  C   UNK N   1     134.397 138.250 148.393  0.00  0.00    -0.047 A 
HETATM   13  C   UNK N   1     133.310 138.434 150.577  0.00  0.00     0.107 A 
HETATM   14  C   UNK N   1     135.478 138.988 148.890  0.00  0.00     0.018 A 
HETATM   15  C   UNK N   1     135.503 139.458 150.207  0.00  0.00    -0.018 A 
HETATM   16  C   UNK N   1     134.420 139.180 151.059  0.00  0.00     0.106 A 
ENDROOT
BRANCH   2  17
HETATM   17  C   UNK N   1     132.155 135.820 149.404  0.00  0.00     0.238 C 
HETATM   18  O   UNK N   1     133.149 135.134 149.214  0.00  0.00    -0.272 OA
HETATM   19  N   UNK N   1     131.237 135.427 150.352  0.00  0.00    -0.297 N 
HETATM   20  C   UNK N   1     131.340 134.281 151.090  0.00  0.00     0.220 C 
HETATM   21  H   UNK N   1     130.443 136.036 150.571  0.00  0.00     0.171 HD
HETATM   22  O   UNK N   1     132.237 133.473 150.893  0.00  0.00    -0.274 OA
HETATM   23  C   UNK N   1     130.348 134.020 152.188  0.00  0.00     0.117 C 
ENDBRANCH   2  17
BRANCH  13  24
HETATM   24  O   UNK N   1     132.280 138.135 151.399  0.00  0.00    -0.357 OA
HETATM   25  H   UNK N   1     131.486 137.647 151.155  0.00  0.00     0.218 HD
ENDBRANCH  13  24
BRANCH  16  26
HETATM   26  O   UNK N   1     134.470 139.635 152.335  0.00  0.00    -0.357 OA
HETATM   27  H   UNK N   1     135.257 139.957 152.785  0.00  0.00     0.218 HD
ENDBRANCH  16  26
BRANCH  15  28
HETATM   28  C   UNK N   1     136.708 140.247 150.713  0.00  0.00     0.013 C 
HETATM   29  C   UNK N   1     137.282 141.150 149.614  0.00  0.00     0.015 C 
HETATM   30  C   UNK N   1     137.782 139.303 151.266  0.00  0.00     0.015 C 
ENDBRANCH  15  28
TORSDOF 4
ENDMDL
