MODEL 1
REMARK VINA RESULT:      -7.1      0.000      0.000
REMARK  4 active torsions:
REMARK  status: ('A' for Active; 'I' for Inactive)
REMARK    1  A    between atoms: O_2  and  C_20 
REMARK    2  A    between atoms: O_3  and  C_23 
REMARK       I    between atoms: N_5  and  C_19 
REMARK       I    between atoms: N_5  and  C_25 
REMARK       I    between atoms: N_6  and  C_25 
REMARK    3  A    between atoms: C_8  and  C_19 
REMARK    4  A    between atoms: C_22  and  C_24 
ROOT
HETATM    1  C   UNK N   1     139.580 148.472 121.469  0.00  0.00     0.016 C 
HETATM    2  C   UNK N   1     138.318 147.624 121.971  0.00  0.00     0.076 C 
HETATM    3  C   UNK N   1     140.435 149.163 122.609  0.00  0.00    -0.043 C 
HETATM    4  C   UNK N   1     138.968 146.560 122.931  0.00  0.00     0.025 C 
HETATM    5  C   UNK N   1     140.846 148.075 123.636  0.00  0.00     0.009 C 
HETATM    6  C   UNK N   1     139.205 149.389 120.298  0.00  0.00     0.011 C 
HETATM    7  C   UNK N   1     139.671 147.232 124.126  0.00  0.00     0.002 C 
HETATM    8  C   UNK N   1     137.601 146.957 120.757  0.00  0.00     0.003 A 
HETATM    9  C   UNK N   1     138.777 148.545 119.100  0.00  0.00     0.040 C 
HETATM   10  C   UNK N   1     141.760 149.734 122.034  0.00  0.00     0.015 C 
HETATM   11  C   UNK N   1     139.703 150.331 123.310  0.00  0.00     0.015 C 
HETATM   12  C   UNK N   1     137.845 147.402 119.427  0.00  0.00    -0.047 A 
HETATM   13  C   UNK N   1     136.648 145.907 120.950  0.00  0.00     0.107 A 
HETATM   14  C   UNK N   1     137.209 146.779 118.347  0.00  0.00     0.018 A 
HETATM   15  C   UNK N   1     136.306 145.726 118.534  0.00  0.00    -0.018 A 
HETATM   16  C   UNK N   1     136.024 145.284 119.837  0.00  0.00     0.106 A 
ENDROOT
BRANCH   2  17
HETATM   17  C   UNK N   1     137.197 148.445 122.670  0.00  0.00     0.239 C 
HETATM   18  O   UNK N   1     136.640 149.332 122.041  0.00  0.00    -0.272 OA
HETATM   19  N   UNK N   1     136.730 148.110 123.922  0.00  0.00    -0.279 N 
HETATM   20  C   UNK N   1     135.685 148.733 124.549  0.00  0.00     0.320 C 
HETATM   21  H   UNK N   1     137.150 147.320 124.420  0.00  0.00     0.173 HD
HETATM   22  O   UNK N   1     135.131 149.700 124.046  0.00  0.00    -0.247 OA
HETATM   23  N   UNK N   1     135.243 148.264 125.741  0.00  0.00    -0.352 N 
HETATM   24  H   UNK N   1     135.676 147.435 126.175  0.00  0.00     0.160 HD
HETATM   25  H   UNK N   1     134.450 148.717 126.219  0.00  0.00     0.160 HD
ENDBRANCH   2  17
BRANCH  13  26
HETATM   26  O   UNK N   1     136.346 145.514 122.206  0.00  0.00    -0.357 OA
HETATM   27  H   UNK N   1     136.704 145.891 123.017  0.00  0.00     0.218 HD
ENDBRANCH  13  26
BRANCH  16  28
HETATM   28  O   UNK N   1     135.151 144.260 119.996  0.00  0.00    -0.357 OA
HETATM   29  H   UNK N   1     134.977 143.795 120.821  0.00  0.00     0.218 HD
ENDBRANCH  16  28
BRANCH  15  30
HETATM   30  C   UNK N   1     135.620 145.080 117.332  0.00  0.00     0.013 C 
HETATM   31  C   UNK N   1     134.258 145.732 117.066  0.00  0.00     0.015 C 
HETATM   32  C   UNK N   1     136.511 145.135 116.086  0.00  0.00     0.015 C 
ENDBRANCH  15  30
TORSDOF 4
ENDMDL
MODEL 2
REMARK VINA RESULT:      -7.1     35.210     38.291
REMARK  4 active torsions:
REMARK  status: ('A' for Active; 'I' for Inactive)
REMARK    1  A    between atoms: O_2  and  C_20 
REMARK    2  A    between atoms: O_3  and  C_23 
REMARK       I    between atoms: N_5  and  C_19 
REMARK       I    between atoms: N_5  and  C_25 
REMARK       I    between atoms: N_6  and  C_25 
REMARK    3  A    between atoms: C_8  and  C_19 
REMARK    4  A    between atoms: C_22  and  C_24 
ROOT
HETATM    1  C   UNK N   1     150.215 157.946 153.279  0.00  0.00     0.016 C 
HETATM    2  C   UNK N   1     150.664 158.512 154.709  0.00  0.00     0.076 C 
HETATM    3  C   UNK N   1     150.249 156.370 153.129  0.00  0.00    -0.043 C 
HETATM    4  C   UNK N   1     149.656 157.814 155.696  0.00  0.00     0.025 C 
HETATM    5  C   UNK N   1     149.411 155.753 154.279  0.00  0.00     0.009 C 
HETATM    6  C   UNK N   1     150.888 158.718 152.138  0.00  0.00     0.011 C 
HETATM    7  C   UNK N   1     149.799 156.281 155.658  0.00  0.00     0.002 C 
HETATM    8  C   UNK N   1     150.532 160.066 154.737  0.00  0.00     0.003 A 
HETATM    9  C   UNK N   1     150.430 160.175 152.163  0.00  0.00     0.040 C 
HETATM   10  C   UNK N   1     149.559 155.928 151.809  0.00  0.00     0.015 C 
HETATM   11  C   UNK N   1     151.679 155.780 153.112  0.00  0.00     0.015 C 
HETATM   12  C   UNK N   1     150.412 160.813 153.531  0.00  0.00    -0.047 A 
HETATM   13  C   UNK N   1     150.566 160.785 155.973  0.00  0.00     0.107 A 
HETATM   14  C   UNK N   1     150.274 162.205 153.575  0.00  0.00     0.018 A 
HETATM   15  C   UNK N   1     150.271 162.905 154.788  0.00  0.00    -0.018 A 
HETATM   16  C   UNK N   1     150.414 162.197 155.992  0.00  0.00     0.106 A 
ENDROOT
BRANCH   2  17
HETATM   17  C   UNK N   1     152.148 158.250 155.095  0.00  0.00     0.239 C 
HETATM   18  O   UNK N   1     152.385 157.555 156.071  0.00  0.00    -0.272 OA
HETATM   19  N   UNK N   1     153.187 158.666 154.293  0.00  0.00    -0.279 N 
HETATM   20  C   UNK N   1     154.506 158.384 154.529  0.00  0.00     0.320 C 
HETATM   21  H   UNK N   1     152.983 159.188 153.436  0.00  0.00     0.173 HD
HETATM   22  O   UNK N   1     154.854 157.785 155.537  0.00  0.00    -0.247 OA
HETATM   23  N   UNK N   1     155.444 158.760 153.626  0.00  0.00    -0.352 N 
HETATM   24  H   UNK N   1     155.174 159.243 152.756  0.00  0.00     0.160 HD
HETATM   25  H   UNK N   1     156.439 158.545 153.786  0.00  0.00     0.160 HD
ENDBRANCH   2  17
BRANCH  13  26
HETATM   26  O   UNK N   1     150.749 160.107 157.126  0.00  0.00    -0.357 OA
HETATM   27  H   UNK N   1     150.581 160.444 158.012  0.00  0.00     0.218 HD
ENDBRANCH  13  26
BRANCH  16  28
HETATM   28  O   UNK N   1     150.402 162.893 157.154  0.00  0.00    -0.357 OA
HETATM   29  H   UNK N   1     149.613 163.156 157.642  0.00  0.00     0.218 HD
ENDBRANCH  16  28
BRANCH  15  30
HETATM   30  C   UNK N   1     150.131 164.426 154.796  0.00  0.00     0.013 C 
HETATM   31  C   UNK N   1     150.852 165.045 153.592  0.00  0.00     0.015 C 
HETATM   32  C   UNK N   1     148.659 164.851 154.837  0.00  0.00     0.015 C 
ENDBRANCH  15  30
TORSDOF 4
ENDMDL
MODEL 3
REMARK VINA RESULT:      -7.1     56.925     60.347
REMARK  4 active torsions:
REMARK  status: ('A' for Active; 'I' for Inactive)
REMARK    1  A    between atoms: O_2  and  C_20 
REMARK    2  A    between atoms: O_3  and  C_23 
REMARK       I    between atoms: N_5  and  C_19 
REMARK       I    between atoms: N_5  and  C_25 
REMARK       I    between atoms: N_6  and  C_25 
REMARK    3  A    between atoms: C_8  and  C_19 
REMARK    4  A    between atoms: C_22  and  C_24 
ROOT
HETATM    1  C   UNK N   1     131.765 167.238 175.808  0.00  0.00     0.016 C 
HETATM    2  C   UNK N   1     132.279 166.254 176.963  0.00  0.00     0.076 C 
HETATM    3  C   UNK N   1     132.661 167.285 174.503  0.00  0.00    -0.043 C 
HETATM    4  C   UNK N   1     132.323 164.856 176.240  0.00  0.00     0.025 C 
HETATM    5  C   UNK N   1     132.841 165.834 173.984  0.00  0.00     0.009 C 
HETATM    6  C   UNK N   1     131.378 168.610 176.376  0.00  0.00     0.011 C 
HETATM    7  C   UNK N   1     133.314 164.862 175.061  0.00  0.00     0.002 C 
HETATM    8  C   UNK N   1     131.281 166.263 178.161  0.00  0.00     0.003 A 
HETATM    9  C   UNK N   1     130.202 168.455 177.336  0.00  0.00     0.040 C 
HETATM   10  C   UNK N   1     131.940 168.062 173.368  0.00  0.00     0.015 C 
HETATM   11  C   UNK N   1     134.033 167.966 174.719  0.00  0.00     0.015 C 
HETATM   12  C   UNK N   1     130.314 167.299 178.301  0.00  0.00    -0.047 A 
HETATM   13  C   UNK N   1     131.335 165.253 179.173  0.00  0.00     0.107 A 
HETATM   14  C   UNK N   1     129.412 167.281 179.371  0.00  0.00     0.018 A 
HETATM   15  C   UNK N   1     129.442 166.272 180.340  0.00  0.00    -0.018 A 
HETATM   16  C   UNK N   1     130.402 165.252 180.243  0.00  0.00     0.106 A 
ENDROOT
BRANCH   2  17
HETATM   17  C   UNK N   1     133.645 166.633 177.603  0.00  0.00     0.239 C 
HETATM   18  O   UNK N   1     134.547 165.809 177.589  0.00  0.00    -0.272 OA
HETATM   19  N   UNK N   1     133.900 167.907 178.060  0.00  0.00    -0.279 N 
HETATM   20  C   UNK N   1     135.109 168.325 178.546  0.00  0.00     0.320 C 
HETATM   21  H   UNK N   1     133.164 168.617 178.007  0.00  0.00     0.173 HD
HETATM   22  O   UNK N   1     136.045 167.547 178.670  0.00  0.00    -0.247 OA
HETATM   23  N   UNK N   1     135.283 169.627 178.882  0.00  0.00    -0.352 N 
HETATM   24  H   UNK N   1     134.518 170.308 178.763  0.00  0.00     0.160 HD
HETATM   25  H   UNK N   1     136.191 169.958 179.239  0.00  0.00     0.160 HD
ENDBRANCH   2  17
BRANCH  13  26
HETATM   26  O   UNK N   1     132.288 164.300 179.101  0.00  0.00    -0.357 OA
HETATM   27  H   UNK N   1     132.840 163.997 179.830  0.00  0.00     0.218 HD
ENDBRANCH  13  26
BRANCH  16  28
HETATM   28  O   UNK N   1     130.409 164.281 181.189  0.00  0.00    -0.357 OA
HETATM   29  H   UNK N   1     130.671 163.364 181.048  0.00  0.00     0.218 HD
ENDBRANCH  16  28
BRANCH  15  30
HETATM   30  C   UNK N   1     128.450 166.293 181.502  0.00  0.00     0.013 C 
HETATM   31  C   UNK N   1     129.042 167.029 182.710  0.00  0.00     0.015 C 
HETATM   32  C   UNK N   1     127.111 166.911 181.080  0.00  0.00     0.015 C 
ENDBRANCH  15  30
TORSDOF 4
ENDMDL
MODEL 4
REMARK VINA RESULT:      -7.0     35.324     38.567
REMARK  4 active torsions:
REMARK  status: ('A' for Active; 'I' for Inactive)
REMARK    1  A    between atoms: O_2  and  C_20 
REMARK    2  A    between atoms: O_3  and  C_23 
REMARK       I    between atoms: N_5  and  C_19 
REMARK       I    between atoms: N_5  and  C_25 
REMARK       I    between atoms: N_6  and  C_25 
REMARK    3  A    between atoms: C_8  and  C_19 
REMARK    4  A    between atoms: C_22  and  C_24 
ROOT
HETATM    1  C   UNK N   1     151.558 157.646 154.005  0.00  0.00     0.016 C 
HETATM    2  C   UNK N   1     151.211 159.115 154.542  0.00  0.00     0.076 C 
HETATM    3  C   UNK N   1     152.383 157.590 152.655  0.00  0.00    -0.043 C 
HETATM    4  C   UNK N   1     152.632 159.774 154.703  0.00  0.00     0.025 C 
HETATM    5  C   UNK N   1     153.660 158.453 152.828  0.00  0.00     0.009 C 
HETATM    6  C   UNK N   1     150.326 156.733 154.047  0.00  0.00     0.011 C 
HETATM    7  C   UNK N   1     153.373 159.857 153.355  0.00  0.00     0.002 C 
HETATM    8  C   UNK N   1     150.449 159.026 155.898  0.00  0.00     0.003 A 
HETATM    9  C   UNK N   1     149.875 156.544 155.494  0.00  0.00     0.040 C 
HETATM   10  C   UNK N   1     152.876 156.145 152.370  0.00  0.00     0.015 C 
HETATM   11  C   UNK N   1     151.576 158.045 151.417  0.00  0.00     0.015 C 
HETATM   12  C   UNK N   1     149.845 157.807 156.321  0.00  0.00    -0.047 A 
HETATM   13  C   UNK N   1     150.300 160.175 156.737  0.00  0.00     0.107 A 
HETATM   14  C   UNK N   1     149.181 157.739 157.551  0.00  0.00     0.018 A 
HETATM   15  C   UNK N   1     149.070 158.855 158.389  0.00  0.00    -0.018 A 
HETATM   16  C   UNK N   1     149.631 160.077 157.985  0.00  0.00     0.106 A 
ENDROOT
BRANCH   2  17
HETATM   17  C   UNK N   1     150.270 159.954 153.631  0.00  0.00     0.239 C 
HETATM   18  O   UNK N   1     149.260 159.427 153.189  0.00  0.00    -0.272 OA
HETATM   19  N   UNK N   1     150.476 161.299 153.424  0.00  0.00    -0.279 N 
HETATM   20  C   UNK N   1     149.634 162.110 152.712  0.00  0.00     0.320 C 
HETATM   21  H   UNK N   1     151.286 161.756 153.854  0.00  0.00     0.173 HD
HETATM   22  O   UNK N   1     148.652 161.656 152.142  0.00  0.00    -0.247 OA
HETATM   23  N   UNK N   1     149.879 163.442 152.648  0.00  0.00    -0.352 N 
HETATM   24  H   UNK N   1     150.686 163.853 153.141  0.00  0.00     0.160 HD
HETATM   25  H   UNK N   1     149.247 164.065 152.125  0.00  0.00     0.160 HD
ENDBRANCH   2  17
BRANCH  13  26
HETATM   26  O   UNK N   1     150.802 161.359 156.327  0.00  0.00    -0.357 OA
HETATM   27  H   UNK N   1     151.588 161.791 156.678  0.00  0.00     0.218 HD
ENDBRANCH  13  26
BRANCH  16  28
HETATM   28  O   UNK N   1     149.516 161.144 158.814  0.00  0.00    -0.357 OA
HETATM   29  H   UNK N   1     149.013 161.162 159.636  0.00  0.00     0.218 HD
ENDBRANCH  16  28
BRANCH  15  30
HETATM   30  C   UNK N   1     148.325 158.745 159.719  0.00  0.00     0.013 C 
HETATM   31  C   UNK N   1     146.974 158.045 159.530  0.00  0.00     0.015 C 
HETATM   32  C   UNK N   1     149.176 158.032 160.776  0.00  0.00     0.015 C 
ENDBRANCH  15  30
TORSDOF 4
ENDMDL
MODEL 5
REMARK VINA RESULT:      -6.9     58.320     61.783
REMARK  4 active torsions:
REMARK  status: ('A' for Active; 'I' for Inactive)
REMARK    1  A    between atoms: O_2  and  C_20 
REMARK    2  A    between atoms: O_3  and  C_23 
REMARK       I    between atoms: N_5  and  C_19 
REMARK       I    between atoms: N_5  and  C_25 
REMARK       I    between atoms: N_6  and  C_25 
REMARK    3  A    between atoms: C_8  and  C_19 
REMARK    4  A    between atoms: C_22  and  C_24 
ROOT
HETATM    1  C   UNK N   1     137.854 169.452 179.500  0.00  0.00     0.016 C 
HETATM    2  C   UNK N   1     136.564 168.652 180.013  0.00  0.00     0.076 C 
HETATM    3  C   UNK N   1     138.772 170.066 180.636  0.00  0.00    -0.043 C 
HETATM    4  C   UNK N   1     137.186 167.530 180.925  0.00  0.00     0.025 C 
HETATM    5  C   UNK N   1     139.154 168.929 181.620  0.00  0.00     0.009 C 
HETATM    6  C   UNK N   1     137.495 170.420 178.366  0.00  0.00     0.011 C 
HETATM    7  C   UNK N   1     137.952 168.132 182.118  0.00  0.00     0.002 C 
HETATM    8  C   UNK N   1     135.784 168.057 178.801  0.00  0.00     0.003 A 
HETATM    9  C   UNK N   1     136.994 169.633 177.158  0.00  0.00     0.040 C 
HETATM   10  C   UNK N   1     140.108 170.588 180.041  0.00  0.00     0.015 C 
HETATM   11  C   UNK N   1     138.117 171.247 181.389  0.00  0.00     0.015 C 
HETATM   12  C   UNK N   1     136.016 168.528 177.477  0.00  0.00    -0.047 A 
HETATM   13  C   UNK N   1     134.786 167.050 178.990  0.00  0.00     0.107 A 
HETATM   14  C   UNK N   1     135.321 167.970 176.398  0.00  0.00     0.018 A 
HETATM   15  C   UNK N   1     134.372 166.957 176.581  0.00  0.00    -0.018 A 
HETATM   16  C   UNK N   1     134.102 166.492 177.878  0.00  0.00     0.106 A 
ENDROOT
BRANCH   2  17
HETATM   17  C   UNK N   1     135.504 169.506 180.765  0.00  0.00     0.239 C 
HETATM   18  O   UNK N   1     134.934 170.400 180.158  0.00  0.00    -0.272 OA
HETATM   19  N   UNK N   1     135.101 169.194 182.044  0.00  0.00    -0.279 N 
HETATM   20  C   UNK N   1     134.108 169.848 182.723  0.00  0.00     0.320 C 
HETATM   21  H   UNK N   1     135.530 168.399 182.527  0.00  0.00     0.173 HD
HETATM   22  O   UNK N   1     133.550 170.824 182.241  0.00  0.00    -0.247 OA
HETATM   23  N   UNK N   1     133.723 169.401 183.943  0.00  0.00    -0.352 N 
HETATM   24  H   UNK N   1     134.160 168.566 184.360  0.00  0.00     0.160 HD
HETATM   25  H   UNK N   1     132.969 169.877 184.460  0.00  0.00     0.160 HD
ENDBRANCH   2  17
BRANCH  13  26
HETATM   26  O   UNK N   1     134.497 166.636 180.242  0.00  0.00    -0.357 OA
HETATM   27  H   UNK N   1     134.030 167.147 180.912  0.00  0.00     0.218 HD
ENDBRANCH  13  26
BRANCH  16  28
HETATM   28  O   UNK N   1     133.184 165.507 178.031  0.00  0.00    -0.357 OA
HETATM   29  H   UNK N   1     133.272 164.745 178.614  0.00  0.00     0.218 HD
ENDBRANCH  16  28
BRANCH  15  30
HETATM   30  C   UNK N   1     133.624 166.381 175.380  0.00  0.00     0.013 C 
HETATM   31  C   UNK N   1     133.586 167.391 174.226  0.00  0.00     0.015 C 
HETATM   32  C   UNK N   1     134.235 165.049 174.929  0.00  0.00     0.015 C 
ENDBRANCH  15  30
TORSDOF 4
ENDMDL
MODEL 6
REMARK VINA RESULT:      -6.9     43.939     46.004
REMARK  4 active torsions:
REMARK  status: ('A' for Active; 'I' for Inactive)
REMARK    1  A    between atoms: O_2  and  C_20 
REMARK    2  A    between atoms: O_3  and  C_23 
REMARK       I    between atoms: N_5  and  C_19 
REMARK       I    between atoms: N_5  and  C_25 
REMARK       I    between atoms: N_6  and  C_25 
REMARK    3  A    between atoms: C_8  and  C_19 
REMARK    4  A    between atoms: C_22  and  C_24 
ROOT
HETATM    1  C   UNK N   1     158.766 120.876 153.176  0.00  0.00     0.016 C 
HETATM    2  C   UNK N   1     158.019 122.239 153.561  0.00  0.00     0.076 C 
HETATM    3  C   UNK N   1     157.971 119.546 153.502  0.00  0.00    -0.043 C 
HETATM    4  C   UNK N   1     156.679 122.149 152.738  0.00  0.00     0.025 C 
HETATM    5  C   UNK N   1     156.572 119.640 152.838  0.00  0.00     0.009 C 
HETATM    6  C   UNK N   1     160.225 120.888 153.650  0.00  0.00     0.011 C 
HETATM    7  C   UNK N   1     155.833 120.935 153.167  0.00  0.00     0.002 C 
HETATM    8  C   UNK N   1     158.884 123.465 153.139  0.00  0.00     0.003 A 
HETATM    9  C   UNK N   1     160.991 121.994 152.927  0.00  0.00     0.040 C 
HETATM   10  C   UNK N   1     158.670 118.316 152.861  0.00  0.00     0.015 C 
HETATM   11  C   UNK N   1     157.842 119.257 155.016  0.00  0.00     0.015 C 
HETATM   12  C   UNK N   1     160.268 123.316 152.837  0.00  0.00    -0.047 A 
HETATM   13  C   UNK N   1     158.322 124.780 153.081  0.00  0.00     0.107 A 
HETATM   14  C   UNK N   1     161.026 124.424 152.441  0.00  0.00     0.018 A 
HETATM   15  C   UNK N   1     160.465 125.703 152.348  0.00  0.00    -0.018 A 
HETATM   16  C   UNK N   1     159.110 125.885 152.666  0.00  0.00     0.106 A 
ENDROOT
BRANCH   2  17
HETATM   17  C   UNK N   1     157.766 122.457 155.080  0.00  0.00     0.239 C 
HETATM   18  O   UNK N   1     158.729 122.556 155.826  0.00  0.00    -0.272 OA
HETATM   19  N   UNK N   1     156.501 122.674 155.578  0.00  0.00    -0.279 N 
HETATM   20  C   UNK N   1     156.225 122.964 156.887  0.00  0.00     0.320 C 
HETATM   21  H   UNK N   1     155.700 122.661 154.940  0.00  0.00     0.173 HD
HETATM   22  O   UNK N   1     157.110 122.980 157.731  0.00  0.00    -0.247 OA
HETATM   23  N   UNK N   1     154.953 123.254 157.256  0.00  0.00    -0.352 N 
HETATM   24  H   UNK N   1     154.194 123.271 156.559  0.00  0.00     0.160 HD
HETATM   25  H   UNK N   1     154.733 123.485 158.236  0.00  0.00     0.160 HD
ENDBRANCH   2  17
BRANCH  13  26
HETATM   26  O   UNK N   1     157.030 124.959 153.429  0.00  0.00    -0.357 OA
HETATM   27  H   UNK N   1     156.681 124.950 154.327  0.00  0.00     0.218 HD
ENDBRANCH  13  26
BRANCH  16  28
HETATM   28  O   UNK N   1     158.586 127.131 152.563  0.00  0.00    -0.357 OA
HETATM   29  H   UNK N   1     157.663 127.364 152.715  0.00  0.00     0.218 HD
ENDBRANCH  16  28
BRANCH  15  30
HETATM   30  C   UNK N   1     161.329 126.890 151.924  0.00  0.00     0.013 C 
HETATM   31  C   UNK N   1     161.893 127.618 153.150  0.00  0.00     0.015 C 
HETATM   32  C   UNK N   1     162.450 126.454 150.975  0.00  0.00     0.015 C 
ENDBRANCH  15  30
TORSDOF 4
ENDMDL
MODEL 7
REMARK VINA RESULT:      -6.9     50.255     51.751
REMARK  4 active torsions:
REMARK  status: ('A' for Active; 'I' for Inactive)
REMARK    1  A    between atoms: O_2  and  C_20 
REMARK    2  A    between atoms: O_3  and  C_23 
REMARK       I    between atoms: N_5  and  C_19 
REMARK       I    between atoms: N_5  and  C_25 
REMARK       I    between atoms: N_6  and  C_25 
REMARK    3  A    between atoms: C_8  and  C_19 
REMARK    4  A    between atoms: C_22  and  C_24 
ROOT
HETATM    1  C   UNK N   1     154.011 132.979 167.833  0.00  0.00     0.016 C 
HETATM    2  C   UNK N   1     154.981 131.731 167.579  0.00  0.00     0.076 C 
HETATM    3  C   UNK N   1     152.622 132.637 168.513  0.00  0.00    -0.043 C 
HETATM    4  C   UNK N   1     155.176 131.137 169.024  0.00  0.00     0.025 C 
HETATM    5  C   UNK N   1     152.902 131.852 169.822  0.00  0.00     0.009 C 
HETATM    6  C   UNK N   1     153.917 133.874 166.590  0.00  0.00     0.011 C 
HETATM    7  C   UNK N   1     153.839 130.663 169.624  0.00  0.00     0.002 C 
HETATM    8  C   UNK N   1     156.327 132.214 166.958  0.00  0.00     0.003 A 
HETATM    9  C   UNK N   1     155.287 134.476 166.286  0.00  0.00     0.040 C 
HETATM   10  C   UNK N   1     151.883 133.934 168.939  0.00  0.00     0.015 C 
HETATM   11  C   UNK N   1     151.661 131.848 167.594  0.00  0.00     0.015 C 
HETATM   12  C   UNK N   1     156.442 133.507 166.372  0.00  0.00    -0.047 A 
HETATM   13  C   UNK N   1     157.473 131.358 166.924  0.00  0.00     0.107 A 
HETATM   14  C   UNK N   1     157.663 133.933 165.836  0.00  0.00     0.018 A 
HETATM   15  C   UNK N   1     158.793 133.108 165.838  0.00  0.00    -0.018 A 
HETATM   16  C   UNK N   1     158.703 131.817 166.385  0.00  0.00     0.106 A 
ENDROOT
BRANCH   2  17
HETATM   17  C   UNK N   1     154.456 130.671 166.569  0.00  0.00     0.239 C 
HETATM   18  O   UNK N   1     154.100 131.043 165.461  0.00  0.00    -0.272 OA
HETATM   19  N   UNK N   1     154.509 129.323 166.845  0.00  0.00    -0.279 N 
HETATM   20  C   UNK N   1     154.150 128.339 165.963  0.00  0.00     0.320 C 
HETATM   21  H   UNK N   1     154.874 129.008 167.748  0.00  0.00     0.173 HD
HETATM   22  O   UNK N   1     153.682 128.613 164.867  0.00  0.00    -0.247 OA
HETATM   23  N   UNK N   1     154.331 127.039 166.299  0.00  0.00    -0.352 N 
HETATM   24  H   UNK N   1     154.747 126.782 167.207  0.00  0.00     0.160 HD
HETATM   25  H   UNK N   1     154.075 126.288 165.640  0.00  0.00     0.160 HD
ENDBRANCH   2  17
BRANCH  13  26
HETATM   26  O   UNK N   1     157.371 130.102 167.409  0.00  0.00    -0.357 OA
HETATM   27  H   UNK N   1     156.575 129.701 167.775  0.00  0.00     0.218 HD
ENDBRANCH  13  26
BRANCH  16  28
HETATM   28  O   UNK N   1     159.811 131.037 166.381  0.00  0.00    -0.357 OA
HETATM   29  H   UNK N   1     159.992 130.324 165.759  0.00  0.00     0.218 HD
ENDBRANCH  16  28
BRANCH  15  30
HETATM   30  C   UNK N   1     160.106 133.603 165.232  0.00  0.00     0.013 C 
HETATM   31  C   UNK N   1     160.182 133.256 163.741  0.00  0.00     0.015 C 
HETATM   32  C   UNK N   1     160.293 135.107 165.461  0.00  0.00     0.015 C 
ENDBRANCH  15  30
TORSDOF 4
ENDMDL
MODEL 8
REMARK VINA RESULT:      -6.9     58.458     61.861
REMARK  4 active torsions:
REMARK  status: ('A' for Active; 'I' for Inactive)
REMARK    1  A    between atoms: O_2  and  C_20 
REMARK    2  A    between atoms: O_3  and  C_23 
REMARK       I    between atoms: N_5  and  C_19 
REMARK       I    between atoms: N_5  and  C_25 
REMARK       I    between atoms: N_6  and  C_25 
REMARK    3  A    between atoms: C_8  and  C_19 
REMARK    4  A    between atoms: C_22  and  C_24 
ROOT
HETATM    1  C   UNK N   1     133.435 168.058 177.127  0.00  0.00     0.016 C 
HETATM    2  C   UNK N   1     133.373 167.987 178.725  0.00  0.00     0.076 C 
HETATM    3  C   UNK N   1     132.169 167.484 176.368  0.00  0.00    -0.043 C 
HETATM    4  C   UNK N   1     132.074 168.809 179.063  0.00  0.00     0.025 C 
HETATM    5  C   UNK N   1     130.906 168.191 176.925  0.00  0.00     0.009 C 
HETATM    6  C   UNK N   1     134.786 167.556 176.599  0.00  0.00     0.011 C 
HETATM    7  C   UNK N   1     130.819 168.160 178.449  0.00  0.00     0.002 C 
HETATM    8  C   UNK N   1     134.651 168.632 179.343  0.00  0.00     0.003 A 
HETATM    9  C   UNK N   1     135.902 168.473 177.093  0.00  0.00     0.040 C 
HETATM   10  C   UNK N   1     132.227 167.834 174.856  0.00  0.00     0.015 C 
HETATM   11  C   UNK N   1     132.029 165.947 176.473  0.00  0.00     0.015 C 
HETATM   12  C   UNK N   1     135.814 168.857 178.551  0.00  0.00    -0.047 A 
HETATM   13  C   UNK N   1     134.706 168.978 180.730  0.00  0.00     0.107 A 
HETATM   14  C   UNK N   1     136.946 169.455 179.115  0.00  0.00     0.018 A 
HETATM   15  C   UNK N   1     136.984 169.828 180.464  0.00  0.00    -0.018 A 
HETATM   16  C   UNK N   1     135.863 169.593 181.276  0.00  0.00     0.106 A 
ENDROOT
BRANCH   2  17
HETATM   17  C   UNK N   1     133.340 166.554 179.330  0.00  0.00     0.239 C 
HETATM   18  O   UNK N   1     134.283 165.807 179.118  0.00  0.00    -0.272 OA
HETATM   19  N   UNK N   1     132.348 166.160 180.200  0.00  0.00    -0.279 N 
HETATM   20  C   UNK N   1     132.315 164.948 180.836  0.00  0.00     0.320 C 
HETATM   21  H   UNK N   1     131.594 166.813 180.433  0.00  0.00     0.173 HD
HETATM   22  O   UNK N   1     133.157 164.091 180.609  0.00  0.00    -0.247 OA
HETATM   23  N   UNK N   1     131.343 164.696 181.747  0.00  0.00    -0.352 N 
HETATM   24  H   UNK N   1     130.636 165.411 181.975  0.00  0.00     0.160 HD
HETATM   25  H   UNK N   1     131.313 163.792 182.241  0.00  0.00     0.160 HD
ENDBRANCH   2  17
BRANCH  13  26
HETATM   26  O   UNK N   1     133.643 168.711 181.517  0.00  0.00    -0.357 OA
HETATM   27  H   UNK N   1     133.679 168.361 182.414  0.00  0.00     0.218 HD
ENDBRANCH  13  26
BRANCH  16  28
HETATM   28  O   UNK N   1     135.920 169.968 182.577  0.00  0.00    -0.357 OA
HETATM   29  H   UNK N   1     135.364 170.637 182.992  0.00  0.00     0.218 HD
ENDBRANCH  16  28
BRANCH  15  30
HETATM   30  C   UNK N   1     138.244 170.466 181.048  0.00  0.00     0.013 C 
HETATM   31  C   UNK N   1     139.462 169.560 180.837  0.00  0.00     0.015 C 
HETATM   32  C   UNK N   1     138.485 171.862 180.461  0.00  0.00     0.015 C 
ENDBRANCH  15  30
TORSDOF 4
ENDMDL
MODEL 9
REMARK VINA RESULT:      -6.8     42.423     45.277
REMARK  4 active torsions:
REMARK  status: ('A' for Active; 'I' for Inactive)
REMARK    1  A    between atoms: O_2  and  C_20 
REMARK    2  A    between atoms: O_3  and  C_23 
REMARK       I    between atoms: N_5  and  C_19 
REMARK       I    between atoms: N_5  and  C_25 
REMARK       I    between atoms: N_6  and  C_25 
REMARK    3  A    between atoms: C_8  and  C_19 
REMARK    4  A    between atoms: C_22  and  C_24 
ROOT
HETATM    1  C   UNK N   1     171.306 132.814 149.706  0.00  0.00     0.016 C 
HETATM    2  C   UNK N   1     169.885 132.569 150.403  0.00  0.00     0.076 C 
HETATM    3  C   UNK N   1     172.512 131.981 150.303  0.00  0.00    -0.043 C 
HETATM    4  C   UNK N   1     169.666 131.021 150.220  0.00  0.00     0.025 C 
HETATM    5  C   UNK N   1     172.120 130.480 150.293  0.00  0.00     0.009 C 
HETATM    6  C   UNK N   1     171.585 134.312 149.521  0.00  0.00     0.011 C 
HETATM    7  C   UNK N   1     170.762 130.207 150.935  0.00  0.00     0.002 C 
HETATM    8  C   UNK N   1     168.782 133.406 149.687  0.00  0.00     0.003 A 
HETATM    9  C   UNK N   1     170.552 134.913 148.570  0.00  0.00     0.040 C 
HETATM   10  C   UNK N   1     173.768 132.103 149.397  0.00  0.00     0.015 C 
HETATM   11  C   UNK N   1     172.932 132.429 151.723  0.00  0.00     0.015 C 
HETATM   12  C   UNK N   1     169.126 134.488 148.826  0.00  0.00    -0.047 A 
HETATM   13  C   UNK N   1     167.394 133.135 149.904  0.00  0.00     0.107 A 
HETATM   14  C   UNK N   1     168.125 135.216 148.175  0.00  0.00     0.018 A 
HETATM   15  C   UNK N   1     166.768 134.926 148.359  0.00  0.00    -0.018 A 
HETATM   16  C   UNK N   1     166.398 133.882 149.223  0.00  0.00     0.106 A 
ENDROOT
BRANCH   2  17
HETATM   17  C   UNK N   1     169.788 133.008 151.892  0.00  0.00     0.239 C 
HETATM   18  O   UNK N   1     170.069 134.161 152.183  0.00  0.00    -0.272 OA
HETATM   19  N   UNK N   1     169.268 132.175 152.858  0.00  0.00    -0.279 N 
HETATM   20  C   UNK N   1     169.070 132.536 154.164  0.00  0.00     0.320 C 
HETATM   21  H   UNK N   1     168.966 131.232 152.599  0.00  0.00     0.173 HD
HETATM   22  O   UNK N   1     169.418 133.633 154.577  0.00  0.00    -0.247 OA
HETATM   23  N   UNK N   1     168.463 131.671 155.013  0.00  0.00    -0.352 N 
HETATM   24  H   UNK N   1     168.138 130.750 154.684  0.00  0.00     0.160 HD
HETATM   25  H   UNK N   1     168.297 131.933 155.996  0.00  0.00     0.160 HD
ENDBRANCH   2  17
BRANCH  13  26
HETATM   26  O   UNK N   1     167.041 132.161 150.768  0.00  0.00    -0.357 OA
HETATM   27  H   UNK N   1     167.627 131.491 151.135  0.00  0.00     0.218 HD
ENDBRANCH  13  26
BRANCH  16  28
HETATM   28  O   UNK N   1     165.078 133.615 149.382  0.00  0.00    -0.357 OA
HETATM   29  H   UNK N   1     164.699 133.059 150.071  0.00  0.00     0.218 HD
ENDBRANCH  16  28
BRANCH  15  30
HETATM   30  C   UNK N   1     165.702 135.752 147.641  0.00  0.00     0.013 C 
HETATM   31  C   UNK N   1     166.244 137.138 147.272  0.00  0.00     0.015 C 
HETATM   32  C   UNK N   1     165.168 135.020 146.404  0.00  0.00     0.015 C 
ENDBRANCH  15  30
TORSDOF 4
ENDMDL
