MODEL 1
REMARK VINA RESULT:      -7.3      0.000      0.000
REMARK  5 active torsions:
REMARK  status: ('A' for Active; 'I' for Inactive)
REMARK    1  A    between atoms: O_1  and  C_17 
REMARK    2  A    between atoms: O_3  and  C_18 
REMARK    3  A    between atoms: O_4  and  C_21 
REMARK    4  A    between atoms: C_6  and  C_17 
REMARK    5  A    between atoms: C_20  and  C_22 
ROOT
HETATM    1  C   UNK N   1     137.267 142.139 152.696  0.00  0.00     0.017 C 
HETATM    2  C   UNK N   1     136.201 140.955 152.694  0.00  0.00     0.080 C 
HETATM    3  C   UNK N   1     137.201 143.057 153.999  0.00  0.00    -0.043 C 
HETATM    4  C   UNK N   1     134.787 141.530 153.048  0.00  0.00     0.026 C 
HETATM    5  C   UNK N   1     135.744 143.534 154.239  0.00  0.00     0.009 C 
HETATM    6  C   UNK N   1     137.131 142.936 151.384  0.00  0.00     0.011 C 
HETATM    7  C   UNK N   1     134.759 142.365 154.334  0.00  0.00     0.002 C 
HETATM    8  C   UNK N   1     136.067 140.247 151.318  0.00  0.00     0.004 A 
HETATM    9  C   UNK N   1     137.476 142.051 150.190  0.00  0.00     0.040 C 
HETATM   10  C   UNK N   1     137.739 142.315 155.254  0.00  0.00     0.015 C 
HETATM   11  C   UNK N   1     138.100 144.313 153.863  0.00  0.00     0.015 C 
HETATM   12  C   UNK N   1     136.696 140.768 150.162  0.00  0.00    -0.047 A 
HETATM   13  C   UNK N   1     135.301 139.051 151.196  0.00  0.00     0.107 A 
HETATM   14  C   UNK N   1     136.595 140.095 148.938  0.00  0.00     0.018 A 
HETATM   15  C   UNK N   1     135.859 138.908 148.816  0.00  0.00    -0.018 A 
HETATM   16  C   UNK N   1     135.212 138.377 149.949  0.00  0.00     0.106 A 
ENDROOT
BRANCH   2  17
HETATM   17  C   UNK N   1     136.680 139.885 153.674  0.00  0.00     0.154 C 
HETATM   18  O   UNK N   1     135.959 139.491 154.580  0.00  0.00    -0.649 OA
BRANCH  17  19
HETATM   19  O   UNK N   1     137.902 139.332 153.507  0.00  0.00    -0.775 OA
HETATM   20  H   UNK N   1     138.003 138.435 153.161  0.00  0.00     0.167 HD
ENDBRANCH  17  19
ENDBRANCH   2  17
BRANCH  13  21
HETATM   21  O   UNK N   1     134.665 138.566 152.290  0.00  0.00    -0.357 OA
HETATM   22  H   UNK N   1     133.954 137.918 152.280  0.00  0.00     0.218 HD
ENDBRANCH  13  21
BRANCH  16  23
HETATM   23  O   UNK N   1     134.524 137.219 149.816  0.00  0.00    -0.357 OA
HETATM   24  H   UNK N   1     134.786 136.478 149.257  0.00  0.00     0.218 HD
ENDBRANCH  16  23
BRANCH  15  25
HETATM   25  C   UNK N   1     135.753 138.209 147.463  0.00  0.00     0.013 C 
HETATM   26  C   UNK N   1     136.542 136.895 147.454  0.00  0.00     0.015 C 
HETATM   27  C   UNK N   1     136.215 139.137 146.331  0.00  0.00     0.015 C 
ENDBRANCH  15  25
TORSDOF 5
ENDMDL
MODEL 2
REMARK VINA RESULT:      -6.8     18.978     21.484
REMARK  5 active torsions:
REMARK  status: ('A' for Active; 'I' for Inactive)
REMARK    1  A    between atoms: O_1  and  C_17 
REMARK    2  A    between atoms: O_3  and  C_18 
REMARK    3  A    between atoms: O_4  and  C_21 
REMARK    4  A    between atoms: C_6  and  C_17 
REMARK    5  A    between atoms: C_20  and  C_22 
ROOT
HETATM    1  C   UNK N   1     149.929 157.084 151.698  0.00  0.00     0.017 C 
HETATM    2  C   UNK N   1     151.366 156.533 151.286  0.00  0.00     0.080 C 
HETATM    3  C   UNK N   1     149.959 158.078 152.945  0.00  0.00    -0.043 C 
HETATM    4  C   UNK N   1     152.102 155.999 152.563  0.00  0.00     0.026 C 
HETATM    5  C   UNK N   1     150.735 157.430 154.122  0.00  0.00     0.009 C 
HETATM    6  C   UNK N   1     148.974 155.890 151.895  0.00  0.00     0.011 C 
HETATM    7  C   UNK N   1     152.151 157.004 153.720  0.00  0.00     0.002 C 
HETATM    8  C   UNK N   1     151.310 155.356 150.274  0.00  0.00     0.004 A 
HETATM    9  C   UNK N   1     148.786 155.143 150.579  0.00  0.00     0.040 C 
HETATM   10  C   UNK N   1     150.588 159.449 152.574  0.00  0.00     0.015 C 
HETATM   11  C   UNK N   1     148.530 158.417 153.444  0.00  0.00     0.015 C 
HETATM   12  C   UNK N   1     150.082 154.736 149.939  0.00  0.00    -0.047 A 
HETATM   13  C   UNK N   1     152.504 154.877 149.661  0.00  0.00     0.107 A 
HETATM   14  C   UNK N   1     150.047 153.702 148.997  0.00  0.00     0.018 A 
HETATM   15  C   UNK N   1     151.215 153.239 148.376  0.00  0.00    -0.018 A 
HETATM   16  C   UNK N   1     152.452 153.830 148.702  0.00  0.00     0.106 A 
ENDROOT
BRANCH   2  17
HETATM   17  C   UNK N   1     152.121 157.660 150.582  0.00  0.00     0.154 C 
HETATM   18  O   UNK N   1     151.632 158.245 149.626  0.00  0.00    -0.649 OA
BRANCH  17  19
HETATM   19  O   UNK N   1     153.326 158.048 151.054  0.00  0.00    -0.775 OA
HETATM   20  H   UNK N   1     154.107 158.062 150.486  0.00  0.00     0.167 HD
ENDBRANCH  17  19
ENDBRANCH   2  17
BRANCH  13  21
HETATM   21  O   UNK N   1     153.688 155.440 150.004  0.00  0.00    -0.357 OA
HETATM   22  H   UNK N   1     153.795 156.287 150.449  0.00  0.00     0.218 HD
ENDBRANCH  13  21
BRANCH  16  23
HETATM   23  O   UNK N   1     153.567 153.384 148.077  0.00  0.00    -0.357 OA
HETATM   24  H   UNK N   1     153.999 152.540 148.249  0.00  0.00     0.218 HD
ENDBRANCH  16  23
BRANCH  15  25
HETATM   25  C   UNK N   1     151.144 152.097 147.366  0.00  0.00     0.013 C 
HETATM   26  C   UNK N   1     150.531 152.564 146.041  0.00  0.00     0.015 C 
HETATM   27  C   UNK N   1     150.368 150.905 147.942  0.00  0.00     0.015 C 
ENDBRANCH  15  25
TORSDOF 5
ENDMDL
MODEL 3
REMARK VINA RESULT:      -6.8     22.426     24.344
REMARK  5 active torsions:
REMARK  status: ('A' for Active; 'I' for Inactive)
REMARK    1  A    between atoms: O_1  and  C_17 
REMARK    2  A    between atoms: O_3  and  C_18 
REMARK    3  A    between atoms: O_4  and  C_21 
REMARK    4  A    between atoms: C_6  and  C_17 
REMARK    5  A    between atoms: C_20  and  C_22 
ROOT
HETATM    1  C   UNK N   1     151.746 156.995 153.999  0.00  0.00     0.017 C 
HETATM    2  C   UNK N   1     151.445 158.530 154.302  0.00  0.00     0.080 C 
HETATM    3  C   UNK N   1     152.186 156.715 152.492  0.00  0.00    -0.043 C 
HETATM    4  C   UNK N   1     150.488 159.099 153.198  0.00  0.00     0.026 C 
HETATM    5  C   UNK N   1     151.164 157.352 151.513  0.00  0.00     0.009 C 
HETATM    6  C   UNK N   1     150.535 156.151 154.444  0.00  0.00     0.011 C 
HETATM    7  C   UNK N   1     150.975 158.851 151.765  0.00  0.00     0.002 C 
HETATM    8  C   UNK N   1     150.744 158.765 155.668  0.00  0.00     0.004 A 
HETATM    9  C   UNK N   1     150.343 156.261 155.954  0.00  0.00     0.040 C 
HETATM   10  C   UNK N   1     153.616 157.250 152.201  0.00  0.00     0.015 C 
HETATM   11  C   UNK N   1     152.260 155.197 152.187  0.00  0.00     0.015 C 
HETATM   12  C   UNK N   1     150.257 157.680 156.438  0.00  0.00    -0.047 A 
HETATM   13  C   UNK N   1     150.578 160.087 156.175  0.00  0.00     0.107 A 
HETATM   14  C   UNK N   1     149.663 157.909 157.684  0.00  0.00     0.018 A 
HETATM   15  C   UNK N   1     149.514 159.205 158.196  0.00  0.00    -0.018 A 
HETATM   16  C   UNK N   1     149.977 160.302 157.443  0.00  0.00     0.106 A 
ENDROOT
BRANCH   2  17
HETATM   17  C   UNK N   1     152.781 159.268 154.381  0.00  0.00     0.154 C 
HETATM   18  O   UNK N   1     153.031 160.202 153.631  0.00  0.00    -0.649 OA
BRANCH  17  19
HETATM   19  O   UNK N   1     153.679 158.914 155.326  0.00  0.00    -0.775 OA
HETATM   20  H   UNK N   1     153.553 159.154 156.254  0.00  0.00     0.167 HD
ENDBRANCH  17  19
ENDBRANCH   2  17
BRANCH  13  21
HETATM   21  O   UNK N   1     151.007 161.132 155.427  0.00  0.00    -0.357 OA
HETATM   22  H   UNK N   1     151.699 161.094 154.759  0.00  0.00     0.218 HD
ENDBRANCH  13  21
BRANCH  16  23
HETATM   23  O   UNK N   1     149.844 161.545 157.963  0.00  0.00    -0.357 OA
HETATM   24  H   UNK N   1     149.431 161.751 158.810  0.00  0.00     0.218 HD
ENDBRANCH  16  23
BRANCH  15  25
HETATM   25  C   UNK N   1     148.844 159.421 159.550  0.00  0.00     0.013 C 
HETATM   26  C   UNK N   1     149.144 158.264 160.509  0.00  0.00     0.015 C 
HETATM   27  C   UNK N   1     147.331 159.621 159.386  0.00  0.00     0.015 C 
ENDBRANCH  15  25
TORSDOF 5
ENDMDL
MODEL 4
REMARK VINA RESULT:      -6.8     21.135     23.677
REMARK  5 active torsions:
REMARK  status: ('A' for Active; 'I' for Inactive)
REMARK    1  A    between atoms: O_1  and  C_17 
REMARK    2  A    between atoms: O_3  and  C_18 
REMARK    3  A    between atoms: O_4  and  C_21 
REMARK    4  A    between atoms: C_6  and  C_17 
REMARK    5  A    between atoms: C_20  and  C_22 
ROOT
HETATM    1  C   UNK N   1     151.145 156.250 151.779  0.00  0.00     0.017 C 
HETATM    2  C   UNK N   1     151.655 157.653 152.336  0.00  0.00     0.080 C 
HETATM    3  C   UNK N   1     151.624 155.942 150.289  0.00  0.00    -0.043 C 
HETATM    4  C   UNK N   1     151.351 158.771 151.280  0.00  0.00     0.026 C 
HETATM    5  C   UNK N   1     151.280 157.138 149.363  0.00  0.00     0.009 C 
HETATM    6  C   UNK N   1     149.616 156.168 151.955  0.00  0.00     0.011 C 
HETATM    7  C   UNK N   1     151.872 158.456 149.873  0.00  0.00     0.002 C 
HETATM    8  C   UNK N   1     150.961 158.082 153.657  0.00  0.00     0.004 A 
HETATM    9  C   UNK N   1     149.253 156.198 153.436  0.00  0.00     0.040 C 
HETATM   10  C   UNK N   1     153.145 155.630 150.225  0.00  0.00     0.015 C 
HETATM   11  C   UNK N   1     150.934 154.678 149.713  0.00  0.00     0.015 C 
HETATM   12  C   UNK N   1     149.849 157.367 154.167  0.00  0.00    -0.047 A 
HETATM   13  C   UNK N   1     151.434 159.212 154.385  0.00  0.00     0.107 A 
HETATM   14  C   UNK N   1     149.261 157.747 155.379  0.00  0.00     0.018 A 
HETATM   15  C   UNK N   1     149.734 158.845 156.109  0.00  0.00    -0.018 A 
HETATM   16  C   UNK N   1     150.829 159.582 155.616  0.00  0.00     0.106 A 
ENDROOT
BRANCH   2  17
HETATM   17  C   UNK N   1     153.141 157.520 152.664  0.00  0.00     0.154 C 
HETATM   18  O   UNK N   1     153.951 158.346 152.266  0.00  0.00    -0.649 OA
BRANCH  17  19
HETATM   19  O   UNK N   1     153.559 156.502 153.447  0.00  0.00    -0.775 OA
HETATM   20  H   UNK N   1     153.438 155.581 153.180  0.00  0.00     0.167 HD
ENDBRANCH  17  19
ENDBRANCH   2  17
BRANCH  13  21
HETATM   21  O   UNK N   1     152.473 159.924 153.885  0.00  0.00    -0.357 OA
HETATM   22  H   UNK N   1     152.688 160.017 152.952  0.00  0.00     0.218 HD
ENDBRANCH  13  21
BRANCH  16  23
HETATM   23  O   UNK N   1     151.286 160.627 156.346  0.00  0.00    -0.357 OA
HETATM   24  H   UNK N   1     152.142 160.662 156.789  0.00  0.00     0.218 HD
ENDBRANCH  16  23
BRANCH  15  25
HETATM   25  C   UNK N   1     149.057 159.243 157.418  0.00  0.00     0.013 C 
HETATM   26  C   UNK N   1     149.646 158.472 158.604  0.00  0.00     0.015 C 
HETATM   27  C   UNK N   1     147.538 159.044 157.331  0.00  0.00     0.015 C 
ENDBRANCH  15  25
TORSDOF 5
ENDMDL
MODEL 5
REMARK VINA RESULT:      -6.7     16.510     18.585
REMARK  5 active torsions:
REMARK  status: ('A' for Active; 'I' for Inactive)
REMARK    1  A    between atoms: O_1  and  C_17 
REMARK    2  A    between atoms: O_3  and  C_18 
REMARK    3  A    between atoms: O_4  and  C_21 
REMARK    4  A    between atoms: C_6  and  C_17 
REMARK    5  A    between atoms: C_20  and  C_22 
ROOT
HETATM    1  C   UNK N   1     141.649 135.213 134.347  0.00  0.00     0.017 C 
HETATM    2  C   UNK N   1     141.144 134.519 135.689  0.00  0.00     0.080 C 
HETATM    3  C   UNK N   1     141.478 136.798 134.343  0.00  0.00    -0.043 C 
HETATM    4  C   UNK N   1     139.711 135.047 136.038  0.00  0.00     0.026 C 
HETATM    5  C   UNK N   1     140.022 137.176 134.727  0.00  0.00     0.009 C 
HETATM    6  C   UNK N   1     140.973 134.526 133.144  0.00  0.00     0.011 C 
HETATM    7  C   UNK N   1     139.602 136.577 136.073  0.00  0.00     0.002 C 
HETATM    8  C   UNK N   1     141.040 132.973 135.584  0.00  0.00     0.004 A 
HETATM    9  C   UNK N   1     141.404 133.065 133.060  0.00  0.00     0.040 C 
HETATM   10  C   UNK N   1     142.485 137.489 135.304  0.00  0.00     0.015 C 
HETATM   11  C   UNK N   1     141.778 137.406 132.948  0.00  0.00     0.015 C 
HETATM   12  C   UNK N   1     141.191 132.311 134.341  0.00  0.00    -0.047 A 
HETATM   13  C   UNK N   1     140.789 132.187 136.746  0.00  0.00     0.107 A 
HETATM   14  C   UNK N   1     141.131 130.914 134.272  0.00  0.00     0.018 A 
HETATM   15  C   UNK N   1     140.904 130.136 135.414  0.00  0.00    -0.018 A 
HETATM   16  C   UNK N   1     140.736 130.770 136.661  0.00  0.00     0.106 A 
ENDROOT
BRANCH   2  17
HETATM   17  C   UNK N   1     142.174 134.799 136.783  0.00  0.00     0.154 C 
HETATM   18  O   UNK N   1     141.839 135.279 137.857  0.00  0.00    -0.649 OA
BRANCH  17  19
HETATM   19  O   UNK N   1     143.467 134.465 136.578  0.00  0.00    -0.775 OA
HETATM   20  H   UNK N   1     143.798 134.257 135.694  0.00  0.00     0.167 HD
ENDBRANCH  17  19
ENDBRANCH   2  17
BRANCH  13  21
HETATM   21  O   UNK N   1     140.606 132.815 137.933  0.00  0.00    -0.357 OA
HETATM   22  H   UNK N   1     141.045 132.587 138.759  0.00  0.00     0.218 HD
ENDBRANCH  13  21
BRANCH  16  23
HETATM   23  O   UNK N   1     140.538 130.001 137.757  0.00  0.00    -0.357 OA
HETATM   24  H   UNK N   1     141.186 129.853 138.456  0.00  0.00     0.218 HD
ENDBRANCH  16  23
BRANCH  15  25
HETATM   25  C   UNK N   1     140.826 128.615 135.302  0.00  0.00     0.013 C 
HETATM   26  C   UNK N   1     142.188 127.968 135.576  0.00  0.00     0.015 C 
HETATM   27  C   UNK N   1     140.283 128.196 133.929  0.00  0.00     0.015 C 
ENDBRANCH  15  25
TORSDOF 5
ENDMDL
MODEL 6
REMARK VINA RESULT:      -6.7     34.654     38.327
REMARK  5 active torsions:
REMARK  status: ('A' for Active; 'I' for Inactive)
REMARK    1  A    between atoms: O_1  and  C_17 
REMARK    2  A    between atoms: O_3  and  C_18 
REMARK    3  A    between atoms: O_4  and  C_21 
REMARK    4  A    between atoms: C_6  and  C_17 
REMARK    5  A    between atoms: C_20  and  C_22 
ROOT
HETATM    1  C   UNK N   1     137.268 168.890 179.134  0.00  0.00     0.017 C 
HETATM    2  C   UNK N   1     136.078 167.914 179.548  0.00  0.00     0.080 C 
HETATM    3  C   UNK N   1     138.017 169.548 180.378  0.00  0.00    -0.043 C 
HETATM    4  C   UNK N   1     135.157 168.634 180.592  0.00  0.00     0.026 C 
HETATM    5  C   UNK N   1     136.985 170.201 181.335  0.00  0.00     0.009 C 
HETATM    6  C   UNK N   1     136.735 169.928 178.127  0.00  0.00     0.011 C 
HETATM    7  C   UNK N   1     135.912 169.209 181.796  0.00  0.00     0.002 C 
HETATM    8  C   UNK N   1     135.171 167.505 178.355  0.00  0.00     0.004 A 
HETATM    9  C   UNK N   1     136.282 169.236 176.845  0.00  0.00     0.040 C 
HETATM   10  C   UNK N   1     138.882 168.510 181.144  0.00  0.00     0.015 C 
HETATM   11  C   UNK N   1     139.017 170.646 179.931  0.00  0.00     0.015 C 
HETATM   12  C   UNK N   1     135.303 168.123 177.088  0.00  0.00    -0.047 A 
HETATM   13  C   UNK N   1     134.181 166.492 178.518  0.00  0.00     0.107 A 
HETATM   14  C   UNK N   1     134.502 167.714 176.016  0.00  0.00     0.018 A 
HETATM   15  C   UNK N   1     133.541 166.705 176.164  0.00  0.00    -0.018 A 
HETATM   16  C   UNK N   1     133.380 166.084 177.419  0.00  0.00     0.106 A 
ENDROOT
BRANCH   2  17
HETATM   17  C   UNK N   1     136.691 166.618 180.076  0.00  0.00     0.154 C 
HETATM   18  O   UNK N   1     137.537 166.012 179.433  0.00  0.00    -0.649 OA
BRANCH  17  19
HETATM   19  O   UNK N   1     136.329 166.162 181.296  0.00  0.00    -0.775 OA
HETATM   20  H   UNK N   1     135.717 166.658 181.856  0.00  0.00     0.167 HD
ENDBRANCH  17  19
ENDBRANCH   2  17
BRANCH  13  21
HETATM   21  O   UNK N   1     134.023 165.922 179.737  0.00  0.00    -0.357 OA
HETATM   22  H   UNK N   1     134.737 165.660 180.328  0.00  0.00     0.218 HD
ENDBRANCH  13  21
BRANCH  16  23
HETATM   23  O   UNK N   1     132.461 165.097 177.538  0.00  0.00    -0.357 OA
HETATM   24  H   UNK N   1     131.957 164.717 176.809  0.00  0.00     0.218 HD
ENDBRANCH  16  23
BRANCH  15  25
HETATM   25  C   UNK N   1     132.671 166.296 174.979  0.00  0.00     0.013 C 
HETATM   26  C   UNK N   1     133.300 165.133 174.204  0.00  0.00     0.015 C 
HETATM   27  C   UNK N   1     132.405 167.493 174.057  0.00  0.00     0.015 C 
ENDBRANCH  15  25
TORSDOF 5
ENDMDL
MODEL 7
REMARK VINA RESULT:      -6.5     37.092     40.085
REMARK  5 active torsions:
REMARK  status: ('A' for Active; 'I' for Inactive)
REMARK    1  A    between atoms: O_1  and  C_17 
REMARK    2  A    between atoms: O_3  and  C_18 
REMARK    3  A    between atoms: O_4  and  C_21 
REMARK    4  A    between atoms: C_6  and  C_17 
REMARK    5  A    between atoms: C_20  and  C_22 
ROOT
HETATM    1  C   UNK N   1     134.426 168.573 177.463  0.00  0.00     0.017 C 
HETATM    2  C   UNK N   1     134.768 168.225 178.979  0.00  0.00     0.080 C 
HETATM    3  C   UNK N   1     133.309 167.629 176.827  0.00  0.00    -0.043 C 
HETATM    4  C   UNK N   1     135.024 166.685 179.113  0.00  0.00     0.026 C 
HETATM    5  C   UNK N   1     133.680 166.140 177.053  0.00  0.00     0.009 C 
HETATM    6  C   UNK N   1     135.735 168.598 176.649  0.00  0.00     0.011 C 
HETATM    7  C   UNK N   1     133.902 165.815 178.533  0.00  0.00     0.002 C 
HETATM    8  C   UNK N   1     136.042 168.940 179.505  0.00  0.00     0.004 A 
HETATM    9  C   UNK N   1     136.646 169.715 177.149  0.00  0.00     0.040 C 
HETATM   10  C   UNK N   1     131.901 167.928 177.411  0.00  0.00     0.015 C 
HETATM   11  C   UNK N   1     133.162 167.859 175.300  0.00  0.00     0.015 C 
HETATM   12  C   UNK N   1     136.895 169.655 178.629  0.00  0.00    -0.047 A 
HETATM   13  C   UNK N   1     136.378 168.888 180.889  0.00  0.00     0.107 A 
HETATM   14  C   UNK N   1     138.019 170.324 179.128  0.00  0.00     0.018 A 
HETATM   15  C   UNK N   1     138.344 170.293 180.490  0.00  0.00    -0.018 A 
HETATM   16  C   UNK N   1     137.519 169.577 181.380  0.00  0.00     0.106 A 
ENDROOT
BRANCH   2  17
HETATM   17  C   UNK N   1     133.615 168.723 179.850  0.00  0.00     0.154 C 
HETATM   18  O   UNK N   1     133.035 167.970 180.620  0.00  0.00    -0.649 OA
BRANCH  17  19
HETATM   19  O   UNK N   1     133.265 170.028 179.804  0.00  0.00    -0.775 OA
HETATM   20  H   UNK N   1     133.750 170.696 180.307  0.00  0.00     0.167 HD
ENDBRANCH  17  19
ENDBRANCH   2  17
BRANCH  13  21
HETATM   21  O   UNK N   1     135.588 168.175 181.728  0.00  0.00    -0.357 OA
HETATM   22  H   UNK N   1     134.625 168.184 181.730  0.00  0.00     0.218 HD
ENDBRANCH  13  21
BRANCH  16  23
HETATM   23  O   UNK N   1     137.837 169.575 182.696  0.00  0.00    -0.357 OA
HETATM   24  H   UNK N   1     138.709 169.377 183.057  0.00  0.00     0.218 HD
ENDBRANCH  16  23
BRANCH  15  25
HETATM   25  C   UNK N   1     139.587 171.018 180.998  0.00  0.00     0.013 C 
HETATM   26  C   UNK N   1     139.346 172.529 181.100  0.00  0.00     0.015 C 
HETATM   27  C   UNK N   1     140.800 170.713 180.109  0.00  0.00     0.015 C 
ENDBRANCH  15  25
TORSDOF 5
ENDMDL
MODEL 8
REMARK VINA RESULT:      -6.5      4.493      8.479
REMARK  5 active torsions:
REMARK  status: ('A' for Active; 'I' for Inactive)
REMARK    1  A    between atoms: O_1  and  C_17 
REMARK    2  A    between atoms: O_3  and  C_18 
REMARK    3  A    between atoms: O_4  and  C_21 
REMARK    4  A    between atoms: C_6  and  C_17 
REMARK    5  A    between atoms: C_20  and  C_22 
ROOT
HETATM    1  C   UNK N   1     130.723 136.254 148.092  0.00  0.00     0.017 C 
HETATM    2  C   UNK N   1     131.921 136.310 147.043  0.00  0.00     0.080 C 
HETATM    3  C   UNK N   1     129.430 135.497 147.546  0.00  0.00    -0.043 C 
HETATM    4  C   UNK N   1     131.376 136.806 145.660  0.00  0.00     0.026 C 
HETATM    5  C   UNK N   1     129.019 136.074 146.166  0.00  0.00     0.009 C 
HETATM    6  C   UNK N   1     130.426 137.684 148.586  0.00  0.00     0.011 C 
HETATM    7  C   UNK N   1     130.164 136.018 145.149  0.00  0.00     0.002 C 
HETATM    8  C   UNK N   1     133.058 137.284 147.455  0.00  0.00     0.004 A 
HETATM    9  C   UNK N   1     131.629 138.242 149.340  0.00  0.00     0.040 C 
HETATM   10  C   UNK N   1     129.661 133.964 147.442  0.00  0.00     0.015 C 
HETATM   11  C   UNK N   1     128.223 135.653 148.508  0.00  0.00     0.015 C 
HETATM   12  C   UNK N   1     132.906 138.165 148.553  0.00  0.00    -0.047 A 
HETATM   13  C   UNK N   1     134.283 137.309 146.727  0.00  0.00     0.107 A 
HETATM   14  C   UNK N   1     133.957 139.009 148.932  0.00  0.00     0.018 A 
HETATM   15  C   UNK N   1     135.170 139.024 148.232  0.00  0.00    -0.018 A 
HETATM   16  C   UNK N   1     135.342 138.168 147.127  0.00  0.00     0.106 A 
ENDROOT
BRANCH   2  17
HETATM   17  C   UNK N   1     132.557 134.922 146.978  0.00  0.00     0.154 C 
HETATM   18  O   UNK N   1     132.707 134.345 145.910  0.00  0.00    -0.649 OA
BRANCH  17  19
HETATM   19  O   UNK N   1     133.006 134.344 148.115  0.00  0.00    -0.775 OA
HETATM   20  H   UNK N   1     132.776 134.700 148.983  0.00  0.00     0.167 HD
ENDBRANCH  17  19
ENDBRANCH   2  17
BRANCH  13  21
HETATM   21  O   UNK N   1     134.422 136.496 145.652  0.00  0.00    -0.357 OA
HETATM   22  H   UNK N   1     135.086 136.593 144.961  0.00  0.00     0.218 HD
ENDBRANCH  13  21
BRANCH  16  23
HETATM   23  O   UNK N   1     136.529 138.181 146.476  0.00  0.00    -0.357 OA
HETATM   24  H   UNK N   1     137.231 137.530 146.589  0.00  0.00     0.218 HD
ENDBRANCH  16  23
BRANCH  15  25
HETATM   25  C   UNK N   1     136.289 139.971 148.660  0.00  0.00     0.013 C 
HETATM   26  C   UNK N   1     136.761 139.665 150.086  0.00  0.00     0.015 C 
HETATM   27  C   UNK N   1     135.847 141.434 148.529  0.00  0.00     0.015 C 
ENDBRANCH  15  25
TORSDOF 5
ENDMDL
MODEL 9
REMARK VINA RESULT:      -6.4      2.437      4.123
REMARK  5 active torsions:
REMARK  status: ('A' for Active; 'I' for Inactive)
REMARK    1  A    between atoms: O_1  and  C_17 
REMARK    2  A    between atoms: O_3  and  C_18 
REMARK    3  A    between atoms: O_4  and  C_21 
REMARK    4  A    between atoms: C_6  and  C_17 
REMARK    5  A    between atoms: C_20  and  C_22 
ROOT
HETATM    1  C   UNK N   1     135.763 141.173 155.644  0.00  0.00     0.017 C 
HETATM    2  C   UNK N   1     136.763 141.894 154.636  0.00  0.00     0.080 C 
HETATM    3  C   UNK N   1     136.046 141.512 157.177  0.00  0.00    -0.043 C 
HETATM    4  C   UNK N   1     138.238 141.672 155.119  0.00  0.00     0.026 C 
HETATM    5  C   UNK N   1     137.542 141.268 157.507  0.00  0.00     0.009 C 
HETATM    6  C   UNK N   1     135.759 139.660 155.348  0.00  0.00     0.011 C 
HETATM    7  C   UNK N   1     138.476 142.057 156.584  0.00  0.00     0.002 C 
HETATM    8  C   UNK N   1     136.679 141.348 153.185  0.00  0.00     0.004 A 
HETATM    9  C   UNK N   1     135.216 139.400 153.946  0.00  0.00     0.040 C 
HETATM   10  C   UNK N   1     135.647 142.972 157.527  0.00  0.00     0.015 C 
HETATM   11  C   UNK N   1     135.196 140.628 158.127  0.00  0.00     0.015 C 
HETATM   12  C   UNK N   1     135.925 140.188 152.882  0.00  0.00    -0.047 A 
HETATM   13  C   UNK N   1     137.365 142.009 152.125  0.00  0.00     0.107 A 
HETATM   14  C   UNK N   1     135.830 139.731 151.561  0.00  0.00     0.018 A 
HETATM   15  C   UNK N   1     136.487 140.389 150.513  0.00  0.00    -0.018 A 
HETATM   16  C   UNK N   1     137.255 141.537 150.790  0.00  0.00     0.106 A 
ENDROOT
BRANCH   2  17
HETATM   17  C   UNK N   1     136.371 143.369 154.554  0.00  0.00     0.154 C 
HETATM   18  O   UNK N   1     137.198 144.253 154.730  0.00  0.00    -0.649 OA
BRANCH  17  19
HETATM   19  O   UNK N   1     135.100 143.701 154.234  0.00  0.00    -0.775 OA
HETATM   20  H   UNK N   1     134.366 143.509 154.832  0.00  0.00     0.167 HD
ENDBRANCH  17  19
ENDBRANCH   2  17
BRANCH  13  21
HETATM   21  O   UNK N   1     138.119 143.097 152.412  0.00  0.00    -0.357 OA
HETATM   22  H   UNK N   1     138.299 143.434 153.296  0.00  0.00     0.218 HD
ENDBRANCH  13  21
BRANCH  16  23
HETATM   23  O   UNK N   1     137.865 142.171 149.761  0.00  0.00    -0.357 OA
HETATM   24  H   UNK N   1     137.684 143.076 149.482  0.00  0.00     0.218 HD
ENDBRANCH  16  23
BRANCH  15  25
HETATM   25  C   UNK N   1     136.378 139.854 149.087  0.00  0.00     0.013 C 
HETATM   26  C   UNK N   1     135.367 140.663 148.266  0.00  0.00     0.015 C 
HETATM   27  C   UNK N   1     136.018 138.363 149.089  0.00  0.00     0.015 C 
ENDBRANCH  15  25
TORSDOF 5
ENDMDL
