MODEL 1
REMARK VINA RESULT:      -6.9      0.000      0.000
REMARK  5 active torsions:
REMARK  status: ('A' for Active; 'I' for Inactive)
REMARK    1  A    between atoms: O_1  and  C_17 
REMARK    2  A    between atoms: O_3  and  C_18 
REMARK    3  A    between atoms: O_4  and  C_21 
REMARK    4  A    between atoms: C_6  and  C_17 
REMARK    5  A    between atoms: C_20  and  C_22 
ROOT
HETATM    1  C   UNK N   1     144.645 133.314 145.282  0.00  0.00     0.017 C 
HETATM    2  C   UNK N   1     144.417 133.657 143.745  0.00  0.00     0.080 C 
HETATM    3  C   UNK N   1     145.969 132.467 145.558  0.00  0.00    -0.043 C 
HETATM    4  C   UNK N   1     145.741 134.246 143.144  0.00  0.00     0.026 C 
HETATM    5  C   UNK N   1     147.189 133.154 144.890  0.00  0.00     0.009 C 
HETATM    6  C   UNK N   1     144.573 134.617 146.104  0.00  0.00     0.011 C 
HETATM    7  C   UNK N   1     146.979 133.377 143.390  0.00  0.00     0.002 C 
HETATM    8  C   UNK N   1     143.316 134.724 143.506  0.00  0.00     0.004 A 
HETATM    9  C   UNK N   1     143.179 135.228 146.000  0.00  0.00     0.040 C 
HETATM   10  C   UNK N   1     146.263 132.342 147.077  0.00  0.00     0.015 C 
HETATM   11  C   UNK N   1     145.831 131.005 145.054  0.00  0.00     0.015 C 
HETATM   12  C   UNK N   1     142.731 135.433 144.581  0.00  0.00    -0.047 A 
HETATM   13  C   UNK N   1     142.881 135.022 142.186  0.00  0.00     0.107 A 
HETATM   14  C   UNK N   1     141.710 136.363 144.341  0.00  0.00     0.018 A 
HETATM   15  C   UNK N   1     141.269 136.657 143.039  0.00  0.00    -0.018 A 
HETATM   16  C   UNK N   1     141.885 135.987 141.947  0.00  0.00     0.106 A 
ENDROOT
BRANCH   2  17
HETATM   17  C   UNK N   1     143.946 132.388 143.038  0.00  0.00     0.154 C 
HETATM   18  O   UNK N   1     144.519 131.972 142.040  0.00  0.00    -0.649 OA
BRANCH  17  19
HETATM   19  O   UNK N   1     142.850 131.743 143.493  0.00  0.00    -0.775 OA
HETATM   20  H   UNK N   1     142.865 131.253 144.328  0.00  0.00     0.167 HD
ENDBRANCH  17  19
ENDBRANCH   2  17
BRANCH  13  21
HETATM   21  O   UNK N   1     143.430 134.367 141.136  0.00  0.00    -0.357 OA
HETATM   22  H   UNK N   1     143.424 134.711 140.233  0.00  0.00     0.218 HD
ENDBRANCH  13  21
BRANCH  16  23
HETATM   23  O   UNK N   1     141.562 136.247 140.658  0.00  0.00    -0.357 OA
HETATM   24  H   UNK N   1     140.793 135.913 140.186  0.00  0.00     0.218 HD
ENDBRANCH  16  23
BRANCH  15  25
HETATM   25  C   UNK N   1     140.149 137.685 142.849  0.00  0.00     0.013 C 
HETATM   26  C   UNK N   1     140.288 138.836 143.851  0.00  0.00     0.015 C 
HETATM   27  C   UNK N   1     138.767 137.025 142.951  0.00  0.00     0.015 C 
ENDBRANCH  15  25
TORSDOF 5
ENDMDL
MODEL 2
REMARK VINA RESULT:      -6.4     49.341     50.837
REMARK  5 active torsions:
REMARK  status: ('A' for Active; 'I' for Inactive)
REMARK    1  A    between atoms: O_1  and  C_17 
REMARK    2  A    between atoms: O_3  and  C_18 
REMARK    3  A    between atoms: O_4  and  C_21 
REMARK    4  A    between atoms: C_6  and  C_17 
REMARK    5  A    between atoms: C_20  and  C_22 
ROOT
HETATM    1  C   UNK N   1     142.325 160.216 188.057  0.00  0.00     0.017 C 
HETATM    2  C   UNK N   1     143.735 160.626 187.443  0.00  0.00     0.080 C 
HETATM    3  C   UNK N   1     142.437 159.276 189.342  0.00  0.00    -0.043 C 
HETATM    4  C   UNK N   1     144.668 161.147 188.591  0.00  0.00     0.026 C 
HETATM    5  C   UNK N   1     143.404 159.904 190.379  0.00  0.00     0.009 C 
HETATM    6  C   UNK N   1     141.496 161.492 188.307  0.00  0.00     0.011 C 
HETATM    7  C   UNK N   1     144.785 160.192 189.784  0.00  0.00     0.002 C 
HETATM    8  C   UNK N   1     143.646 161.770 186.398  0.00  0.00     0.004 A 
HETATM    9  C   UNK N   1     141.203 162.196 186.985  0.00  0.00     0.040 C 
HETATM   10  C   UNK N   1     141.060 159.080 190.029  0.00  0.00     0.015 C 
HETATM   11  C   UNK N   1     142.905 157.844 188.965  0.00  0.00     0.015 C 
HETATM   12  C   UNK N   1     142.441 162.478 186.182  0.00  0.00    -0.047 A 
HETATM   13  C   UNK N   1     144.790 162.141 185.642  0.00  0.00     0.107 A 
HETATM   14  C   UNK N   1     142.377 163.481 185.204  0.00  0.00     0.018 A 
HETATM   15  C   UNK N   1     143.503 163.847 184.447  0.00  0.00    -0.018 A 
HETATM   16  C   UNK N   1     144.732 163.177 184.691  0.00  0.00     0.106 A 
ENDROOT
BRANCH   2  17
HETATM   17  C   UNK N   1     144.304 159.415 186.706  0.00  0.00     0.154 C 
HETATM   18  O   UNK N   1     143.637 158.810 185.878  0.00  0.00    -0.649 OA
BRANCH  17  19
HETATM   19  O   UNK N   1     145.546 158.977 187.010  0.00  0.00    -0.775 OA
HETATM   20  H   UNK N   1     146.333 159.477 186.752  0.00  0.00     0.167 HD
ENDBRANCH  17  19
ENDBRANCH   2  17
BRANCH  13  21
HETATM   21  O   UNK N   1     145.961 161.488 185.835  0.00  0.00    -0.357 OA
HETATM   22  H   UNK N   1     146.531 161.635 186.601  0.00  0.00     0.218 HD
ENDBRANCH  13  21
BRANCH  16  23
HETATM   23  O   UNK N   1     145.879 163.501 184.047  0.00  0.00    -0.357 OA
HETATM   24  H   UNK N   1     146.337 162.961 183.397  0.00  0.00     0.218 HD
ENDBRANCH  16  23
BRANCH  15  25
HETATM   25  C   UNK N   1     143.362 164.952 183.395  0.00  0.00     0.013 C 
HETATM   26  C   UNK N   1     143.555 166.335 184.024  0.00  0.00     0.015 C 
HETATM   27  C   UNK N   1     142.013 164.857 182.667  0.00  0.00     0.015 C 
ENDBRANCH  15  25
TORSDOF 5
ENDMDL
MODEL 3
REMARK VINA RESULT:      -6.4     46.884     49.180
REMARK  5 active torsions:
REMARK  status: ('A' for Active; 'I' for Inactive)
REMARK    1  A    between atoms: O_1  and  C_17 
REMARK    2  A    between atoms: O_3  and  C_18 
REMARK    3  A    between atoms: O_4  and  C_21 
REMARK    4  A    between atoms: C_6  and  C_17 
REMARK    5  A    between atoms: C_20  and  C_22 
ROOT
HETATM    1  C   UNK N   1     131.335 166.308 179.300  0.00  0.00     0.017 C 
HETATM    2  C   UNK N   1     132.147 166.886 178.059  0.00  0.00     0.080 C 
HETATM    3  C   UNK N   1     130.036 165.480 178.883  0.00  0.00    -0.043 C 
HETATM    4  C   UNK N   1     132.374 165.741 177.011  0.00  0.00     0.026 C 
HETATM    5  C   UNK N   1     130.406 164.403 177.830  0.00  0.00     0.009 C 
HETATM    6  C   UNK N   1     132.299 165.514 180.205  0.00  0.00     0.011 C 
HETATM    7  C   UNK N   1     131.094 165.005 176.602  0.00  0.00     0.002 C 
HETATM    8  C   UNK N   1     133.554 167.420 178.435  0.00  0.00     0.004 A 
HETATM    9  C   UNK N   1     133.365 166.441 180.781  0.00  0.00     0.040 C 
HETATM   10  C   UNK N   1     129.401 164.759 180.102  0.00  0.00     0.015 C 
HETATM   11  C   UNK N   1     128.916 166.407 178.337  0.00  0.00     0.015 C 
HETATM   12  C   UNK N   1     134.097 167.220 179.726  0.00  0.00    -0.047 A 
HETATM   13  C   UNK N   1     134.339 168.113 177.474  0.00  0.00     0.107 A 
HETATM   14  C   UNK N   1     135.355 167.748 180.052  0.00  0.00     0.018 A 
HETATM   15  C   UNK N   1     136.133 168.441 179.109  0.00  0.00    -0.018 A 
HETATM   16  C   UNK N   1     135.619 168.604 177.794  0.00  0.00     0.106 A 
ENDROOT
BRANCH   2  17
HETATM   17  C   UNK N   1     131.373 168.075 177.495  0.00  0.00     0.154 C 
HETATM   18  O   UNK N   1     131.077 168.131 176.309  0.00  0.00    -0.649 OA
BRANCH  17  19
HETATM   19  O   UNK N   1     131.054 169.105 178.310  0.00  0.00    -0.775 OA
HETATM   20  H   UNK N   1     130.516 169.846 177.997  0.00  0.00     0.167 HD
ENDBRANCH  17  19
ENDBRANCH   2  17
BRANCH  13  21
HETATM   21  O   UNK N   1     133.850 168.309 176.227  0.00  0.00    -0.357 OA
HETATM   22  H   UNK N   1     134.412 168.427 175.449  0.00  0.00     0.218 HD
ENDBRANCH  13  21
BRANCH  16  23
HETATM   23  O   UNK N   1     136.321 169.210 176.807  0.00  0.00    -0.357 OA
HETATM   24  H   UNK N   1     136.012 169.378 175.911  0.00  0.00     0.218 HD
ENDBRANCH  16  23
BRANCH  15  25
HETATM   25  C   UNK N   1     137.498 168.991 179.534  0.00  0.00     0.013 C 
HETATM   26  C   UNK N   1     138.184 168.045 180.525  0.00  0.00     0.015 C 
HETATM   27  C   UNK N   1     137.372 170.406 180.114  0.00  0.00     0.015 C 
ENDBRANCH  15  25
TORSDOF 5
ENDMDL
MODEL 4
REMARK VINA RESULT:      -6.3     42.845     45.585
REMARK  5 active torsions:
REMARK  status: ('A' for Active; 'I' for Inactive)
REMARK    1  A    between atoms: O_1  and  C_17 
REMARK    2  A    between atoms: O_3  and  C_18 
REMARK    3  A    between atoms: O_4  and  C_21 
REMARK    4  A    between atoms: C_6  and  C_17 
REMARK    5  A    between atoms: C_20  and  C_22 
ROOT
HETATM    1  C   UNK N   1     150.257 142.600 186.954  0.00  0.00     0.017 C 
HETATM    2  C   UNK N   1     151.620 143.207 186.399  0.00  0.00     0.080 C 
HETATM    3  C   UNK N   1     149.065 142.631 185.893  0.00  0.00    -0.043 C 
HETATM    4  C   UNK N   1     151.936 142.574 184.999  0.00  0.00     0.026 C 
HETATM    5  C   UNK N   1     149.526 141.995 184.556  0.00  0.00     0.009 C 
HETATM    6  C   UNK N   1     150.528 141.193 187.524  0.00  0.00     0.011 C 
HETATM    7  C   UNK N   1     150.782 142.669 183.995  0.00  0.00     0.002 C 
HETATM    8  C   UNK N   1     152.844 142.904 187.303  0.00  0.00     0.004 A 
HETATM    9  C   UNK N   1     151.478 141.281 188.715  0.00  0.00     0.040 C 
HETATM   10  C   UNK N   1     147.829 141.841 186.397  0.00  0.00     0.015 C 
HETATM   11  C   UNK N   1     148.548 144.076 185.654  0.00  0.00     0.015 C 
HETATM   12  C   UNK N   1     152.750 142.015 188.399  0.00  0.00    -0.047 A 
HETATM   13  C   UNK N   1     154.102 143.509 187.033  0.00  0.00     0.107 A 
HETATM   14  C   UNK N   1     153.862 141.790 189.223  0.00  0.00     0.018 A 
HETATM   15  C   UNK N   1     155.106 142.392 188.966  0.00  0.00    -0.018 A 
HETATM   16  C   UNK N   1     155.226 143.247 187.838  0.00  0.00     0.106 A 
ENDROOT
BRANCH   2  17
HETATM   17  C   UNK N   1     151.483 144.727 186.357  0.00  0.00     0.154 C 
HETATM   18  O   UNK N   1     151.201 145.363 187.364  0.00  0.00    -0.649 OA
BRANCH  17  19
HETATM   19  O   UNK N   1     151.627 145.374 185.180  0.00  0.00    -0.775 OA
HETATM   20  H   UNK N   1     151.022 146.082 184.917  0.00  0.00     0.167 HD
ENDBRANCH  17  19
ENDBRANCH   2  17
BRANCH  13  21
HETATM   21  O   UNK N   1     154.225 144.356 185.983  0.00  0.00    -0.357 OA
HETATM   22  H   UNK N   1     153.850 144.179 185.111  0.00  0.00     0.218 HD
ENDBRANCH  13  21
BRANCH  16  23
HETATM   23  O   UNK N   1     156.398 143.826 187.484  0.00  0.00    -0.357 OA
HETATM   24  H   UNK N   1     156.523 144.746 187.230  0.00  0.00     0.218 HD
ENDBRANCH  16  23
BRANCH  15  25
HETATM   25  C   UNK N   1     156.279 142.101 189.909  0.00  0.00     0.013 C 
HETATM   26  C   UNK N   1     156.126 140.724 190.563  0.00  0.00     0.015 C 
HETATM   27  C   UNK N   1     156.428 143.203 190.966  0.00  0.00     0.015 C 
ENDBRANCH  15  25
TORSDOF 5
ENDMDL
MODEL 5
REMARK VINA RESULT:      -6.3     53.399     55.653
REMARK  5 active torsions:
REMARK  status: ('A' for Active; 'I' for Inactive)
REMARK    1  A    between atoms: O_1  and  C_17 
REMARK    2  A    between atoms: O_3  and  C_18 
REMARK    3  A    between atoms: O_4  and  C_21 
REMARK    4  A    between atoms: C_6  and  C_17 
REMARK    5  A    between atoms: C_20  and  C_22 
ROOT
HETATM    1  C   UNK N   1     168.348 154.284 187.161  0.00  0.00     0.017 C 
HETATM    2  C   UNK N   1     167.408 154.641 188.395  0.00  0.00     0.080 C 
HETATM    3  C   UNK N   1     167.754 153.145 186.214  0.00  0.00    -0.043 C 
HETATM    4  C   UNK N   1     165.945 154.875 187.881  0.00  0.00     0.026 C 
HETATM    5  C   UNK N   1     166.300 153.498 185.803  0.00  0.00     0.009 C 
HETATM    6  C   UNK N   1     168.699 155.581 186.405  0.00  0.00     0.011 C 
HETATM    7  C   UNK N   1     165.396 153.735 187.016  0.00  0.00     0.002 C 
HETATM    8  C   UNK N   1     167.826 155.939 189.134  0.00  0.00     0.004 A 
HETATM    9  C   UNK N   1     169.505 156.513 187.305  0.00  0.00     0.040 C 
HETATM   10  C   UNK N   1     168.591 152.982 184.918  0.00  0.00     0.015 C 
HETATM   11  C   UNK N   1     167.797 151.751 186.898  0.00  0.00     0.015 C 
HETATM   12  C   UNK N   1     168.828 156.792 188.617  0.00  0.00    -0.047 A 
HETATM   13  C   UNK N   1     167.189 156.309 190.350  0.00  0.00     0.107 A 
HETATM   14  C   UNK N   1     169.214 157.939 189.326  0.00  0.00     0.018 A 
HETATM   15  C   UNK N   1     168.595 158.305 190.533  0.00  0.00    -0.018 A 
HETATM   16  C   UNK N   1     167.551 157.483 191.036  0.00  0.00     0.106 A 
ENDROOT
BRANCH   2  17
HETATM   17  C   UNK N   1     167.515 153.512 189.417  0.00  0.00     0.154 C 
HETATM   18  O   UNK N   1     168.600 153.168 189.867  0.00  0.00    -0.649 OA
BRANCH  17  19
HETATM   19  O   UNK N   1     166.399 152.850 189.794  0.00  0.00    -0.775 OA
HETATM   20  H   UNK N   1     165.519 153.161 189.539  0.00  0.00     0.167 HD
ENDBRANCH  17  19
ENDBRANCH   2  17
BRANCH  13  21
HETATM   21  O   UNK N   1     166.217 155.518 190.864  0.00  0.00    -0.357 OA
HETATM   22  H   UNK N   1     165.306 155.812 190.993  0.00  0.00     0.218 HD
ENDBRANCH  13  21
BRANCH  16  23
HETATM   23  O   UNK N   1     166.862 157.788 192.162  0.00  0.00    -0.357 OA
HETATM   24  H   UNK N   1     165.967 158.139 192.203  0.00  0.00     0.218 HD
ENDBRANCH  16  23
BRANCH  15  25
HETATM   25  C   UNK N   1     169.066 159.572 191.254  0.00  0.00     0.013 C 
HETATM   26  C   UNK N   1     168.231 160.785 190.832  0.00  0.00     0.015 C 
HETATM   27  C   UNK N   1     170.563 159.820 191.020  0.00  0.00     0.015 C 
ENDBRANCH  15  25
TORSDOF 5
ENDMDL
MODEL 6
REMARK VINA RESULT:      -6.3     28.373     30.075
REMARK  5 active torsions:
REMARK  status: ('A' for Active; 'I' for Inactive)
REMARK    1  A    between atoms: O_1  and  C_17 
REMARK    2  A    between atoms: O_3  and  C_18 
REMARK    3  A    between atoms: O_4  and  C_21 
REMARK    4  A    between atoms: C_6  and  C_17 
REMARK    5  A    between atoms: C_20  and  C_22 
ROOT
HETATM    1  C   UNK N   1     166.547 151.148 138.845  0.00  0.00     0.017 C 
HETATM    2  C   UNK N   1     167.533 151.257 140.089  0.00  0.00     0.080 C 
HETATM    3  C   UNK N   1     166.659 149.763 138.061  0.00  0.00    -0.043 C 
HETATM    4  C   UNK N   1     167.405 149.964 140.967  0.00  0.00     0.026 C 
HETATM    5  C   UNK N   1     166.537 148.577 139.053  0.00  0.00     0.009 C 
HETATM    6  C   UNK N   1     165.112 151.468 139.311  0.00  0.00     0.011 C 
HETATM    7  C   UNK N   1     167.568 148.657 140.182  0.00  0.00     0.002 C 
HETATM    8  C   UNK N   1     167.218 152.454 141.025  0.00  0.00     0.004 A 
HETATM    9  C   UNK N   1     165.028 152.911 139.803  0.00  0.00     0.040 C 
HETATM   10  C   UNK N   1     165.539 149.614 136.997  0.00  0.00     0.015 C 
HETATM   11  C   UNK N   1     167.987 149.663 137.261  0.00  0.00     0.015 C 
HETATM   12  C   UNK N   1     166.048 153.232 140.858  0.00  0.00    -0.047 A 
HETATM   13  C   UNK N   1     168.100 152.785 142.089  0.00  0.00     0.107 A 
HETATM   14  C   UNK N   1     165.807 154.332 141.693  0.00  0.00     0.018 A 
HETATM   15  C   UNK N   1     166.680 154.669 142.742  0.00  0.00    -0.018 A 
HETATM   16  C   UNK N   1     167.832 153.865 142.950  0.00  0.00     0.106 A 
ENDROOT
BRANCH   2  17
HETATM   17  C   UNK N   1     168.946 151.489 139.558  0.00  0.00     0.154 C 
HETATM   18  O   UNK N   1     169.181 152.385 138.758  0.00  0.00    -0.649 OA
BRANCH  17  19
HETATM   19  O   UNK N   1     169.943 150.660 139.940  0.00  0.00    -0.775 OA
HETATM   20  H   UNK N   1     170.868 150.858 139.737  0.00  0.00     0.167 HD
ENDBRANCH  17  19
ENDBRANCH   2  17
BRANCH  13  21
HETATM   21  O   UNK N   1     169.223 152.052 142.280  0.00  0.00    -0.357 OA
HETATM   22  H   UNK N   1     169.238 151.223 142.777  0.00  0.00     0.218 HD
ENDBRANCH  13  21
BRANCH  16  23
HETATM   23  O   UNK N   1     168.699 154.083 143.968  0.00  0.00    -0.357 OA
HETATM   24  H   UNK N   1     169.012 153.426 144.598  0.00  0.00     0.218 HD
ENDBRANCH  16  23
BRANCH  15  25
HETATM   25  C   UNK N   1     166.354 155.885 143.616  0.00  0.00     0.013 C 
HETATM   26  C   UNK N   1     165.001 156.490 143.229  0.00  0.00     0.015 C 
HETATM   27  C   UNK N   1     167.472 156.935 143.545  0.00  0.00     0.015 C 
ENDBRANCH  15  25
TORSDOF 5
ENDMDL
MODEL 7
REMARK VINA RESULT:      -6.2     18.982     21.603
REMARK  5 active torsions:
REMARK  status: ('A' for Active; 'I' for Inactive)
REMARK    1  A    between atoms: O_1  and  C_17 
REMARK    2  A    between atoms: O_3  and  C_18 
REMARK    3  A    between atoms: O_4  and  C_21 
REMARK    4  A    between atoms: C_6  and  C_17 
REMARK    5  A    between atoms: C_20  and  C_22 
ROOT
HETATM    1  C   UNK N   1     131.125 150.703 138.902  0.00  0.00     0.017 C 
HETATM    2  C   UNK N   1     129.593 150.476 139.269  0.00  0.00     0.080 C 
HETATM    3  C   UNK N   1     131.679 152.136 139.332  0.00  0.00    -0.043 C 
HETATM    4  C   UNK N   1     129.354 150.880 140.765  0.00  0.00     0.026 C 
HETATM    5  C   UNK N   1     131.354 152.408 140.824  0.00  0.00     0.009 C 
HETATM    6  C   UNK N   1     131.956 149.534 139.470  0.00  0.00     0.011 C 
HETATM    7  C   UNK N   1     129.857 152.283 141.122  0.00  0.00     0.002 C 
HETATM    8  C   UNK N   1     129.137 148.999 139.136  0.00  0.00     0.004 A 
HETATM    9  C   UNK N   1     131.542 148.223 138.806  0.00  0.00     0.040 C 
HETATM   10  C   UNK N   1     133.218 152.233 139.153  0.00  0.00     0.015 C 
HETATM   11  C   UNK N   1     131.100 153.266 138.438  0.00  0.00     0.015 C 
HETATM   12  C   UNK N   1     130.066 147.960 138.896  0.00  0.00    -0.047 A 
HETATM   13  C   UNK N   1     127.764 148.657 139.271  0.00  0.00     0.107 A 
HETATM   14  C   UNK N   1     129.623 146.639 138.741  0.00  0.00     0.018 A 
HETATM   15  C   UNK N   1     128.266 146.295 138.865  0.00  0.00    -0.018 A 
HETATM   16  C   UNK N   1     127.330 147.323 139.156  0.00  0.00     0.106 A 
ENDROOT
BRANCH   2  17
HETATM   17  C   UNK N   1     128.744 151.277 138.285  0.00  0.00     0.154 C 
HETATM   18  O   UNK N   1     128.900 151.162 137.077  0.00  0.00    -0.649 OA
BRANCH  17  19
HETATM   19  O   UNK N   1     127.839 152.163 138.757  0.00  0.00    -0.775 OA
HETATM   20  H   UNK N   1     127.530 152.127 139.673  0.00  0.00     0.167 HD
ENDBRANCH  17  19
ENDBRANCH   2  17
BRANCH  13  21
HETATM   21  O   UNK N   1     126.853 149.629 139.513  0.00  0.00    -0.357 OA
HETATM   22  H   UNK N   1     126.922 150.523 139.153  0.00  0.00     0.218 HD
ENDBRANCH  13  21
BRANCH  16  23
HETATM   23  O   UNK N   1     126.012 147.076 139.347  0.00  0.00    -0.357 OA
HETATM   24  H   UNK N   1     125.633 146.278 139.728  0.00  0.00     0.218 HD
ENDBRANCH  16  23
BRANCH  15  25
HETATM   25  C   UNK N   1     127.852 144.831 138.683  0.00  0.00     0.013 C 
HETATM   26  C   UNK N   1     129.057 143.898 138.844  0.00  0.00     0.015 C 
HETATM   27  C   UNK N   1     127.159 144.613 137.331  0.00  0.00     0.015 C 
ENDBRANCH  15  25
TORSDOF 5
ENDMDL
MODEL 8
REMARK VINA RESULT:      -6.2     24.290     26.585
REMARK  5 active torsions:
REMARK  status: ('A' for Active; 'I' for Inactive)
REMARK    1  A    between atoms: O_1  and  C_17 
REMARK    2  A    between atoms: O_3  and  C_18 
REMARK    3  A    between atoms: O_4  and  C_21 
REMARK    4  A    between atoms: C_6  and  C_17 
REMARK    5  A    between atoms: C_20  and  C_22 
ROOT
HETATM    1  C   UNK N   1     139.155 148.068 121.558  0.00  0.00     0.017 C 
HETATM    2  C   UNK N   1     139.234 148.895 122.915  0.00  0.00     0.080 C 
HETATM    3  C   UNK N   1     137.775 147.290 121.364  0.00  0.00    -0.043 C 
HETATM    4  C   UNK N   1     137.936 149.761 123.070  0.00  0.00     0.026 C 
HETATM    5  C   UNK N   1     136.583 148.262 121.567  0.00  0.00     0.009 C 
HETATM    6  C   UNK N   1     139.498 149.001 120.379  0.00  0.00     0.011 C 
HETATM    7  C   UNK N   1     136.634 148.966 122.925  0.00  0.00     0.002 C 
HETATM    8  C   UNK N   1     140.428 149.885 122.966  0.00  0.00     0.004 A 
HETATM    9  C   UNK N   1     140.938 149.494 120.500  0.00  0.00     0.040 C 
HETATM   10  C   UNK N   1     137.657 146.678 119.943  0.00  0.00     0.015 C 
HETATM   11  C   UNK N   1     137.657 146.081 122.332  0.00  0.00     0.015 C 
HETATM   12  C   UNK N   1     141.229 150.134 121.828  0.00  0.00    -0.047 A 
HETATM   13  C   UNK N   1     140.733 150.580 124.169  0.00  0.00     0.107 A 
HETATM   14  C   UNK N   1     142.326 151.003 121.912  0.00  0.00     0.018 A 
HETATM   15  C   UNK N   1     142.638 151.687 123.101  0.00  0.00    -0.018 A 
HETATM   16  C   UNK N   1     141.810 151.483 124.237  0.00  0.00     0.106 A 
ENDROOT
BRANCH   2  17
HETATM   17  C   UNK N   1     139.444 147.910 124.063  0.00  0.00     0.154 C 
HETATM   18  O   UNK N   1     138.701 147.907 125.035  0.00  0.00    -0.649 OA
BRANCH  17  19
HETATM   19  O   UNK N   1     140.494 147.062 124.025  0.00  0.00    -0.775 OA
HETATM   20  H   UNK N   1     140.877 146.698 124.836  0.00  0.00     0.167 HD
ENDBRANCH  17  19
ENDBRANCH   2  17
BRANCH  13  21
HETATM   21  O   UNK N   1     139.977 150.370 125.272  0.00  0.00    -0.357 OA
HETATM   22  H   UNK N   1     139.064 150.053 125.239  0.00  0.00     0.218 HD
ENDBRANCH  13  21
BRANCH  16  23
HETATM   23  O   UNK N   1     142.002 152.140 125.406  0.00  0.00    -0.357 OA
HETATM   24  H   UNK N   1     141.474 152.045 126.204  0.00  0.00     0.218 HD
ENDBRANCH  16  23
BRANCH  15  25
HETATM   25  C   UNK N   1     143.852 152.621 123.122  0.00  0.00     0.013 C 
HETATM   26  C   UNK N   1     144.230 153.059 121.703  0.00  0.00     0.015 C 
HETATM   27  C   UNK N   1     145.043 151.969 123.837  0.00  0.00     0.015 C 
ENDBRANCH  15  25
TORSDOF 5
ENDMDL
MODEL 9
REMARK VINA RESULT:      -6.2     51.168     53.582
REMARK  5 active torsions:
REMARK  status: ('A' for Active; 'I' for Inactive)
REMARK    1  A    between atoms: O_1  and  C_17 
REMARK    2  A    between atoms: O_3  and  C_18 
REMARK    3  A    between atoms: O_4  and  C_21 
REMARK    4  A    between atoms: C_6  and  C_17 
REMARK    5  A    between atoms: C_20  and  C_22 
ROOT
HETATM    1  C   UNK N   1     168.128 155.654 188.139  0.00  0.00     0.017 C 
HETATM    2  C   UNK N   1     167.205 154.406 188.493  0.00  0.00     0.080 C 
HETATM    3  C   UNK N   1     168.526 156.534 189.409  0.00  0.00    -0.043 C 
HETATM    4  C   UNK N   1     167.835 153.622 189.696  0.00  0.00     0.026 C 
HETATM    5  C   UNK N   1     169.112 155.627 190.523  0.00  0.00     0.009 C 
HETATM    6  C   UNK N   1     169.347 155.165 187.331  0.00  0.00     0.011 C 
HETATM    7  C   UNK N   1     168.156 154.496 190.913  0.00  0.00     0.002 C 
HETATM    8  C   UNK N   1     167.070 153.388 187.330  0.00  0.00     0.004 A 
HETATM    9  C   UNK N   1     168.893 154.573 186.000  0.00  0.00     0.040 C 
HETATM   10  C   UNK N   1     169.592 157.604 189.054  0.00  0.00     0.015 C 
HETATM   11  C   UNK N   1     167.314 157.340 189.952  0.00  0.00     0.015 C 
HETATM   12  C   UNK N   1     167.855 153.498 186.158  0.00  0.00    -0.047 A 
HETATM   13  C   UNK N   1     166.155 152.305 187.428  0.00  0.00     0.107 A 
HETATM   14  C   UNK N   1     167.685 152.588 185.106  0.00  0.00     0.018 A 
HETATM   15  C   UNK N   1     166.776 151.519 185.193  0.00  0.00    -0.018 A 
HETATM   16  C   UNK N   1     166.018 151.369 186.385  0.00  0.00     0.106 A 
ENDROOT
BRANCH   2  17
HETATM   17  C   UNK N   1     165.796 154.921 188.779  0.00  0.00     0.154 C 
HETATM   18  O   UNK N   1     165.340 154.913 189.914  0.00  0.00    -0.649 OA
BRANCH  17  19
HETATM   19  O   UNK N   1     165.025 155.347 187.754  0.00  0.00    -0.775 OA
HETATM   20  H   UNK N   1     164.641 154.724 187.121  0.00  0.00     0.167 HD
ENDBRANCH  17  19
ENDBRANCH   2  17
BRANCH  13  21
HETATM   21  O   UNK N   1     165.398 152.167 188.542  0.00  0.00    -0.357 OA
HETATM   22  H   UNK N   1     165.692 151.689 189.329  0.00  0.00     0.218 HD
ENDBRANCH  13  21
BRANCH  16  23
HETATM   23  O   UNK N   1     165.160 150.339 186.578  0.00  0.00    -0.357 OA
HETATM   24  H   UNK N   1     164.416 150.326 187.189  0.00  0.00     0.218 HD
ENDBRANCH  16  23
BRANCH  15  25
HETATM   25  C   UNK N   1     166.641 150.562 184.004  0.00  0.00     0.013 C 
HETATM   26  C   UNK N   1     167.467 149.291 184.229  0.00  0.00     0.015 C 
HETATM   27  C   UNK N   1     167.031 151.251 182.689  0.00  0.00     0.015 C 
ENDBRANCH  15  25
TORSDOF 5
ENDMDL
