MODEL 1
REMARK VINA RESULT:      -7.3      0.000      0.000
REMARK  4 active torsions:
REMARK  status: ('A' for Active; 'I' for Inactive)
REMARK    1  A    between atoms: O_2  and  C_17 
REMARK    2  A    between atoms: O_3  and  C_20 
REMARK    3  A    between atoms: C_5  and  C_16 
REMARK    4  A    between atoms: C_19  and  C_21 
ROOT
HETATM    1  C   UNK N   1     150.743 157.238 151.714  0.00  0.00     0.013 C 
HETATM    2  C   UNK N   1     152.041 156.452 151.307  0.00  0.00     0.048 C 
HETATM    3  C   UNK N   1     150.994 158.328 152.849  0.00  0.00    -0.043 C 
HETATM    4  C   UNK N   1     153.009 157.554 150.693  0.00  0.00     0.022 C 
HETATM    5  C   UNK N   1     152.437 158.927 152.737  0.00  0.00     0.009 C 
HETATM    6  C   UNK N   1     149.572 156.298 151.993  0.00  0.00     0.011 C 
HETATM    7  C   UNK N   1     152.879 158.984 151.281  0.00  0.00     0.002 C 
HETATM    8  C   UNK N   1     151.748 155.324 150.278  0.00  0.00    -0.000 A 
HETATM    9  C   UNK N   1     149.214 155.529 150.727  0.00  0.00     0.040 C 
HETATM   10  C   UNK N   1     149.960 159.471 152.661  0.00  0.00     0.015 C 
HETATM   11  C   UNK N   1     150.816 157.786 154.289  0.00  0.00     0.015 C 
HETATM   12  C   UNK N   1     150.401 154.936 150.003  0.00  0.00    -0.047 A 
HETATM   13  C   UNK N   1     152.794 154.642 149.574  0.00  0.00     0.107 A 
HETATM   14  C   UNK N   1     150.130 153.957 149.037  0.00  0.00     0.018 A 
HETATM   15  C   UNK N   1     151.158 153.330 148.326  0.00  0.00    -0.018 A 
HETATM   16  C   UNK N   1     152.491 153.684 148.591  0.00  0.00     0.106 A 
ENDROOT
BRANCH  15  17
HETATM   17  C   UNK N   1     150.840 152.244 147.302  0.00  0.00     0.013 C 
HETATM   18  C   UNK N   1     150.557 152.835 145.917  0.00  0.00     0.015 C 
HETATM   19  C   UNK N   1     149.668 151.380 147.785  0.00  0.00     0.015 C 
ENDBRANCH  15  17
BRANCH  16  20
HETATM   20  O   UNK N   1     153.487 153.082 147.903  0.00  0.00    -0.357 OA
HETATM   21  H   UNK N   1     153.445 152.914 146.951  0.00  0.00     0.218 HD
ENDBRANCH  16  20
BRANCH  13  22
HETATM   22  O   UNK N   1     154.105 154.863 149.822  0.00  0.00    -0.357 OA
HETATM   23  H   UNK N   1     154.525 154.748 150.676  0.00  0.00     0.218 HD
ENDBRANCH  13  22
BRANCH   2  24
HETATM   24  C   UNK N   1     152.629 155.740 152.521  0.00  0.00     0.246 C 
HETATM   25  O   UNK N   1     153.832 155.711 152.733  0.00  0.00    -0.306 OA
ENDBRANCH   2  24
TORSDOF 4
ENDMDL
MODEL 2
REMARK VINA RESULT:      -7.1     27.587     29.006
REMARK  4 active torsions:
REMARK  status: ('A' for Active; 'I' for Inactive)
REMARK    1  A    between atoms: O_2  and  C_17 
REMARK    2  A    between atoms: O_3  and  C_20 
REMARK    3  A    between atoms: C_5  and  C_16 
REMARK    4  A    between atoms: C_19  and  C_21 
ROOT
HETATM    1  C   UNK N   1     154.265 133.044 167.420  0.00  0.00     0.013 C 
HETATM    2  C   UNK N   1     155.250 131.849 167.157  0.00  0.00     0.048 C 
HETATM    3  C   UNK N   1     152.807 132.576 167.862  0.00  0.00    -0.043 C 
HETATM    4  C   UNK N   1     155.398 131.124 168.565  0.00  0.00     0.022 C 
HETATM    5  C   UNK N   1     152.875 131.240 168.677  0.00  0.00     0.009 C 
HETATM    6  C   UNK N   1     154.279 134.057 166.277  0.00  0.00     0.011 C 
HETATM    7  C   UNK N   1     154.157 131.179 169.495  0.00  0.00     0.002 C 
HETATM    8  C   UNK N   1     156.629 132.330 166.625  0.00  0.00    -0.000 A 
HETATM    9  C   UNK N   1     155.666 134.679 166.156  0.00  0.00     0.040 C 
HETATM   10  C   UNK N   1     152.194 133.682 168.761  0.00  0.00     0.015 C 
HETATM   11  C   UNK N   1     151.832 132.359 166.678  0.00  0.00     0.015 C 
HETATM   12  C   UNK N   1     156.800 133.681 166.192  0.00  0.00    -0.047 A 
HETATM   13  C   UNK N   1     157.765 131.459 166.550  0.00  0.00     0.107 A 
HETATM   14  C   UNK N   1     158.056 134.132 165.762  0.00  0.00     0.018 A 
HETATM   15  C   UNK N   1     159.167 133.283 165.734  0.00  0.00    -0.018 A 
HETATM   16  C   UNK N   1     159.018 131.947 166.140  0.00  0.00     0.106 A 
ENDROOT
BRANCH  15  17
HETATM   17  C   UNK N   1     160.515 133.789 165.231  0.00  0.00     0.013 C 
HETATM   18  C   UNK N   1     160.801 135.216 165.712  0.00  0.00     0.015 C 
HETATM   19  C   UNK N   1     160.586 133.696 163.702  0.00  0.00     0.015 C 
ENDBRANCH  15  17
BRANCH  16  20
HETATM   20  O   UNK N   1     160.091 131.124 166.119  0.00  0.00    -0.357 OA
HETATM   21  H   UNK N   1     160.110 130.294 165.619  0.00  0.00     0.218 HD
ENDBRANCH  16  20
BRANCH  13  22
HETATM   22  O   UNK N   1     157.694 130.141 166.845  0.00  0.00    -0.357 OA
HETATM   23  H   UNK N   1     158.382 129.644 167.290  0.00  0.00     0.218 HD
ENDBRANCH  13  22
BRANCH   2  24
HETATM   24  C   UNK N   1     154.697 130.940 166.064  0.00  0.00     0.246 C 
HETATM   25  O   UNK N   1     154.776 129.723 166.135  0.00  0.00    -0.306 OA
ENDBRANCH   2  24
TORSDOF 4
ENDMDL
MODEL 3
REMARK VINA RESULT:      -7.0      5.136      7.821
REMARK  4 active torsions:
REMARK  status: ('A' for Active; 'I' for Inactive)
REMARK    1  A    between atoms: O_2  and  C_17 
REMARK    2  A    between atoms: O_3  and  C_20 
REMARK    3  A    between atoms: C_5  and  C_16 
REMARK    4  A    between atoms: C_19  and  C_21 
ROOT
HETATM    1  C   UNK N   1     151.074 150.219 147.015  0.00  0.00     0.013 C 
HETATM    2  C   UNK N   1     151.448 151.483 146.162  0.00  0.00     0.048 C 
HETATM    3  C   UNK N   1     151.059 150.496 148.584  0.00  0.00    -0.043 C 
HETATM    4  C   UNK N   1     150.278 152.524 146.442  0.00  0.00     0.022 C 
HETATM    5  C   UNK N   1     150.625 151.971 148.884  0.00  0.00     0.009 C 
HETATM    6  C   UNK N   1     151.887 148.993 146.602  0.00  0.00     0.011 C 
HETATM    7  C   UNK N   1     149.621 152.453 147.846  0.00  0.00     0.002 C 
HETATM    8  C   UNK N   1     151.561 151.159 144.646  0.00  0.00    -0.000 A 
HETATM    9  C   UNK N   1     151.572 148.628 145.156  0.00  0.00     0.040 C 
HETATM   10  C   UNK N   1     150.035 149.529 149.237  0.00  0.00     0.015 C 
HETATM   11  C   UNK N   1     152.422 150.253 149.277  0.00  0.00     0.015 C 
HETATM   12  C   UNK N   1     151.583 149.800 144.203  0.00  0.00    -0.047 A 
HETATM   13  C   UNK N   1     151.642 152.186 143.649  0.00  0.00     0.107 A 
HETATM   14  C   UNK N   1     151.631 149.505 142.833  0.00  0.00     0.018 A 
HETATM   15  C   UNK N   1     151.666 150.517 141.868  0.00  0.00    -0.018 A 
HETATM   16  C   UNK N   1     151.661 151.859 142.282  0.00  0.00     0.106 A 
ENDROOT
BRANCH  15  17
HETATM   17  C   UNK N   1     151.751 150.169 140.385  0.00  0.00     0.013 C 
HETATM   18  C   UNK N   1     150.418 150.409 139.669  0.00  0.00     0.015 C 
HETATM   19  C   UNK N   1     152.224 148.721 140.201  0.00  0.00     0.015 C 
ENDBRANCH  15  17
BRANCH  16  20
HETATM   20  O   UNK N   1     151.692 152.840 141.352  0.00  0.00    -0.357 OA
HETATM   21  H   UNK N   1     151.897 152.678 140.420  0.00  0.00     0.218 HD
ENDBRANCH  16  20
BRANCH  13  22
HETATM   22  O   UNK N   1     151.722 153.500 143.960  0.00  0.00    -0.357 OA
HETATM   23  H   UNK N   1     151.734 154.211 143.318  0.00  0.00     0.218 HD
ENDBRANCH  13  22
BRANCH   2  24
HETATM   24  C   UNK N   1     152.825 152.001 146.561  0.00  0.00     0.246 C 
HETATM   25  O   UNK N   1     153.002 153.154 146.926  0.00  0.00    -0.306 OA
ENDBRANCH   2  24
TORSDOF 4
ENDMDL
MODEL 4
REMARK VINA RESULT:      -6.8     30.367     33.767
REMARK  4 active torsions:
REMARK  status: ('A' for Active; 'I' for Inactive)
REMARK    1  A    between atoms: O_2  and  C_17 
REMARK    2  A    between atoms: O_3  and  C_20 
REMARK    3  A    between atoms: C_5  and  C_16 
REMARK    4  A    between atoms: C_19  and  C_21 
ROOT
HETATM    1  C   UNK N   1     158.412 121.001 153.363  0.00  0.00     0.013 C 
HETATM    2  C   UNK N   1     157.773 122.424 153.552  0.00  0.00     0.048 C 
HETATM    3  C   UNK N   1     157.492 119.818 153.906  0.00  0.00    -0.043 C 
HETATM    4  C   UNK N   1     156.460 122.404 152.656  0.00  0.00     0.022 C 
HETATM    5  C   UNK N   1     155.975 120.177 153.749  0.00  0.00     0.009 C 
HETATM    6  C   UNK N   1     159.855 120.954 153.861  0.00  0.00     0.011 C 
HETATM    7  C   UNK N   1     155.754 121.030 152.508  0.00  0.00     0.002 C 
HETATM    8  C   UNK N   1     158.736 123.564 153.113  0.00  0.00    -0.000 A 
HETATM    9  C   UNK N   1     160.716 121.908 153.041  0.00  0.00     0.040 C 
HETATM   10  C   UNK N   1     157.796 118.546 153.071  0.00  0.00     0.015 C 
HETATM   11  C   UNK N   1     157.744 119.461 155.392  0.00  0.00     0.015 C 
HETATM   12  C   UNK N   1     160.111 123.279 152.847  0.00  0.00    -0.047 A 
HETATM   13  C   UNK N   1     158.293 124.918 152.956  0.00  0.00     0.107 A 
HETATM   14  C   UNK N   1     160.969 124.294 152.400  0.00  0.00     0.018 A 
HETATM   15  C   UNK N   1     160.514 125.603 152.209  0.00  0.00    -0.018 A 
HETATM   16  C   UNK N   1     159.170 125.909 152.479  0.00  0.00     0.106 A 
ENDROOT
BRANCH  15  17
HETATM   17  C   UNK N   1     161.475 126.697 151.752  0.00  0.00     0.013 C 
HETATM   18  C   UNK N   1     162.630 126.127 150.923  0.00  0.00     0.015 C 
HETATM   19  C   UNK N   1     161.998 127.488 152.958  0.00  0.00     0.015 C 
ENDBRANCH  15  17
BRANCH  16  20
HETATM   20  O   UNK N   1     158.727 127.172 152.293  0.00  0.00    -0.357 OA
HETATM   21  H   UNK N   1     157.803 127.384 152.095  0.00  0.00     0.218 HD
ENDBRANCH  16  20
BRANCH  13  22
HETATM   22  O   UNK N   1     157.039 125.317 153.268  0.00  0.00    -0.357 OA
HETATM   23  H   UNK N   1     156.429 124.821 153.814  0.00  0.00     0.218 HD
ENDBRANCH  13  22
BRANCH   2  24
HETATM   24  C   UNK N   1     157.495 122.686 155.028  0.00  0.00     0.246 C 
HETATM   25  O   UNK N   1     156.461 123.215 155.406  0.00  0.00    -0.306 OA
ENDBRANCH   2  24
TORSDOF 4
ENDMDL
MODEL 5
REMARK VINA RESULT:      -6.7      4.099      8.281
REMARK  4 active torsions:
REMARK  status: ('A' for Active; 'I' for Inactive)
REMARK    1  A    between atoms: O_2  and  C_17 
REMARK    2  A    between atoms: O_3  and  C_20 
REMARK    3  A    between atoms: C_5  and  C_16 
REMARK    4  A    between atoms: C_19  and  C_21 
ROOT
HETATM    1  C   UNK N   1     151.843 157.339 153.714  0.00  0.00     0.013 C 
HETATM    2  C   UNK N   1     151.495 158.839 154.022  0.00  0.00     0.048 C 
HETATM    3  C   UNK N   1     152.465 157.119 152.264  0.00  0.00    -0.043 C 
HETATM    4  C   UNK N   1     152.894 159.596 153.994  0.00  0.00     0.022 C 
HETATM    5  C   UNK N   1     153.301 158.368 151.822  0.00  0.00     0.009 C 
HETATM    6  C   UNK N   1     150.680 156.406 154.047  0.00  0.00     0.011 C 
HETATM    7  C   UNK N   1     153.963 159.021 153.027  0.00  0.00     0.002 C 
HETATM    8  C   UNK N   1     150.792 159.011 155.398  0.00  0.00    -0.000 A 
HETATM    9  C   UNK N   1     150.381 156.466 155.541  0.00  0.00     0.040 C 
HETATM   10  C   UNK N   1     153.402 155.883 152.321  0.00  0.00     0.015 C 
HETATM   11  C   UNK N   1     151.410 156.841 151.165  0.00  0.00     0.015 C 
HETATM   12  C   UNK N   1     150.308 157.866 156.103  0.00  0.00    -0.047 A 
HETATM   13  C   UNK N   1     150.606 160.295 156.006  0.00  0.00     0.107 A 
HETATM   14  C   UNK N   1     149.721 158.012 157.368  0.00  0.00     0.018 A 
HETATM   15  C   UNK N   1     149.584 159.267 157.970  0.00  0.00    -0.018 A 
HETATM   16  C   UNK N   1     150.038 160.407 157.288  0.00  0.00     0.106 A 
ENDROOT
BRANCH  15  17
HETATM   17  C   UNK N   1     148.912 159.402 159.333  0.00  0.00     0.013 C 
HETATM   18  C   UNK N   1     149.245 158.220 160.250  0.00  0.00     0.015 C 
HETATM   19  C   UNK N   1     147.396 159.565 159.170  0.00  0.00     0.015 C 
ENDBRANCH  15  17
BRANCH  16  20
HETATM   20  O   UNK N   1     149.911 161.622 157.867  0.00  0.00    -0.357 OA
HETATM   21  H   UNK N   1     149.618 161.743 158.782  0.00  0.00     0.218 HD
ENDBRANCH  16  20
BRANCH  13  22
HETATM   22  O   UNK N   1     150.940 161.451 155.388  0.00  0.00    -0.357 OA
HETATM   23  H   UNK N   1     150.845 162.323 155.774  0.00  0.00     0.218 HD
ENDBRANCH  13  22
BRANCH   2  24
HETATM   24  C   UNK N   1     150.499 159.372 152.997  0.00  0.00     0.246 C 
HETATM   25  O   UNK N   1     150.603 160.490 152.516  0.00  0.00    -0.306 OA
ENDBRANCH   2  24
TORSDOF 4
ENDMDL
MODEL 6
REMARK VINA RESULT:      -6.7     32.263     35.229
REMARK  4 active torsions:
REMARK  status: ('A' for Active; 'I' for Inactive)
REMARK    1  A    between atoms: O_2  and  C_17 
REMARK    2  A    between atoms: O_3  and  C_20 
REMARK    3  A    between atoms: C_5  and  C_16 
REMARK    4  A    between atoms: C_19  and  C_21 
ROOT
HETATM    1  C   UNK N   1     136.201 168.650 179.271  0.00  0.00     0.013 C 
HETATM    2  C   UNK N   1     134.652 168.457 179.446  0.00  0.00     0.048 C 
HETATM    3  C   UNK N   1     136.936 169.109 180.608  0.00  0.00    -0.043 C 
HETATM    4  C   UNK N   1     134.505 167.268 180.492  0.00  0.00     0.022 C 
HETATM    5  C   UNK N   1     136.217 168.519 181.869  0.00  0.00     0.009 C 
HETATM    6  C   UNK N   1     136.534 169.502 178.047  0.00  0.00     0.011 C 
HETATM    7  C   UNK N   1     135.628 167.150 181.555  0.00  0.00     0.002 C 
HETATM    8  C   UNK N   1     133.946 168.115 178.103  0.00  0.00    -0.000 A 
HETATM    9  C   UNK N   1     136.057 168.797 176.782  0.00  0.00     0.040 C 
HETATM   10  C   UNK N   1     138.394 168.578 180.567  0.00  0.00     0.015 C 
HETATM   11  C   UNK N   1     137.015 170.646 180.784  0.00  0.00     0.015 C 
HETATM   12  C   UNK N   1     134.649 168.255 176.867  0.00  0.00    -0.047 A 
HETATM   13  C   UNK N   1     132.591 167.651 178.049  0.00  0.00     0.107 A 
HETATM   14  C   UNK N   1     134.034 167.896 175.659  0.00  0.00     0.018 A 
HETATM   15  C   UNK N   1     132.725 167.404 175.625  0.00  0.00    -0.018 A 
HETATM   16  C   UNK N   1     132.010 167.273 176.826  0.00  0.00     0.106 A 
ENDROOT
BRANCH  15  17
HETATM   17  C   UNK N   1     132.066 167.051 174.294  0.00  0.00     0.013 C 
HETATM   18  C   UNK N   1     132.794 165.904 173.587  0.00  0.00     0.015 C 
HETATM   19  C   UNK N   1     131.980 168.290 173.394  0.00  0.00     0.015 C 
ENDBRANCH  15  17
BRANCH  16  20
HETATM   20  O   UNK N   1     130.746 166.795 176.797  0.00  0.00    -0.357 OA
HETATM   21  H   UNK N   1     130.481 166.033 176.261  0.00  0.00     0.218 HD
ENDBRANCH  16  20
BRANCH  13  22
HETATM   22  O   UNK N   1     131.803 167.569 179.146  0.00  0.00    -0.357 OA
HETATM   23  H   UNK N   1     130.879 167.318 179.135  0.00  0.00     0.218 HD
ENDBRANCH  13  22
BRANCH   2  24
HETATM   24  C   UNK N   1     134.007 169.757 179.913  0.00  0.00     0.246 C 
HETATM   25  O   UNK N   1     133.108 169.771 180.740  0.00  0.00    -0.306 OA
ENDBRANCH   2  24
TORSDOF 4
ENDMDL
MODEL 7
REMARK VINA RESULT:      -6.4     32.158     34.887
REMARK  4 active torsions:
REMARK  status: ('A' for Active; 'I' for Inactive)
REMARK    1  A    between atoms: O_2  and  C_17 
REMARK    2  A    between atoms: O_3  and  C_20 
REMARK    3  A    between atoms: C_5  and  C_16 
REMARK    4  A    between atoms: C_19  and  C_21 
ROOT
HETATM    1  C   UNK N   1     138.032 169.727 179.493  0.00  0.00     0.013 C 
HETATM    2  C   UNK N   1     136.859 168.834 180.033  0.00  0.00     0.048 C 
HETATM    3  C   UNK N   1     138.850 170.462 180.647  0.00  0.00    -0.043 C 
HETATM    4  C   UNK N   1     137.571 167.702 180.894  0.00  0.00     0.022 C 
HETATM    5  C   UNK N   1     138.877 169.592 181.950  0.00  0.00     0.009 C 
HETATM    6  C   UNK N   1     137.573 170.649 178.364  0.00  0.00     0.011 C 
HETATM    7  C   UNK N   1     138.890 168.110 181.601  0.00  0.00     0.002 C 
HETATM    8  C   UNK N   1     136.013 168.216 178.883  0.00  0.00    -0.000 A 
HETATM    9  C   UNK N   1     137.105 169.816 177.177  0.00  0.00     0.040 C 
HETATM   10  C   UNK N   1     140.306 170.671 180.152  0.00  0.00     0.015 C 
HETATM   11  C   UNK N   1     138.290 171.857 181.021  0.00  0.00     0.015 C 
HETATM   12  C   UNK N   1     136.178 168.680 177.542  0.00  0.00    -0.047 A 
HETATM   13  C   UNK N   1     135.055 167.175 179.115  0.00  0.00     0.107 A 
HETATM   14  C   UNK N   1     135.456 168.088 176.496  0.00  0.00     0.018 A 
HETATM   15  C   UNK N   1     134.555 167.044 176.729  0.00  0.00    -0.018 A 
HETATM   16  C   UNK N   1     134.365 166.583 178.042  0.00  0.00     0.106 A 
ENDROOT
BRANCH  15  17
HETATM   17  C   UNK N   1     133.757 166.439 175.578  0.00  0.00     0.013 C 
HETATM   18  C   UNK N   1     134.353 165.106 175.113  0.00  0.00     0.015 C 
HETATM   19  C   UNK N   1     133.655 167.435 174.415  0.00  0.00     0.015 C 
ENDBRANCH  15  17
BRANCH  16  20
HETATM   20  O   UNK N   1     133.498 165.571 178.271  0.00  0.00    -0.357 OA
HETATM   21  H   UNK N   1     133.534 164.727 177.798  0.00  0.00     0.218 HD
ENDBRANCH  16  20
BRANCH  13  22
HETATM   22  O   UNK N   1     134.751 166.725 180.353  0.00  0.00    -0.357 OA
HETATM   23  H   UNK N   1     133.864 166.674 180.712  0.00  0.00     0.218 HD
ENDBRANCH  13  22
BRANCH   2  24
HETATM   24  C   UNK N   1     135.878 169.679 180.837  0.00  0.00     0.246 C 
HETATM   25  O   UNK N   1     135.375 169.274 181.874  0.00  0.00    -0.306 OA
ENDBRANCH   2  24
TORSDOF 4
ENDMDL
MODEL 8
REMARK VINA RESULT:      -6.2     16.103     18.384
REMARK  4 active torsions:
REMARK  status: ('A' for Active; 'I' for Inactive)
REMARK    1  A    between atoms: O_2  and  C_17 
REMARK    2  A    between atoms: O_3  and  C_20 
REMARK    3  A    between atoms: C_5  and  C_16 
REMARK    4  A    between atoms: C_19  and  C_21 
ROOT
HETATM    1  C   UNK N   1     165.810 154.485 140.362  0.00  0.00     0.013 C 
HETATM    2  C   UNK N   1     166.322 155.544 141.403  0.00  0.00     0.048 C 
HETATM    3  C   UNK N   1     166.101 152.980 140.796  0.00  0.00    -0.043 C 
HETATM    4  C   UNK N   1     165.475 155.265 142.719  0.00  0.00     0.022 C 
HETATM    5  C   UNK N   1     166.064 152.833 142.355  0.00  0.00     0.009 C 
HETATM    6  C   UNK N   1     166.251 154.826 138.940  0.00  0.00     0.011 C 
HETATM    7  C   UNK N   1     165.046 153.793 142.957  0.00  0.00     0.002 C 
HETATM    8  C   UNK N   1     166.121 157.004 140.905  0.00  0.00    -0.000 A 
HETATM    9  C   UNK N   1     165.641 156.156 138.514  0.00  0.00     0.040 C 
HETATM   10  C   UNK N   1     165.001 152.076 140.179  0.00  0.00     0.015 C 
HETATM   11  C   UNK N   1     167.466 152.438 140.302  0.00  0.00     0.015 C 
HETATM   12  C   UNK N   1     165.767 157.255 139.544  0.00  0.00    -0.047 A 
HETATM   13  C   UNK N   1     166.276 158.134 141.772  0.00  0.00     0.107 A 
HETATM   14  C   UNK N   1     165.533 158.566 139.105  0.00  0.00     0.018 A 
HETATM   15  C   UNK N   1     165.646 159.658 139.972  0.00  0.00    -0.018 A 
HETATM   16  C   UNK N   1     166.008 159.435 141.311  0.00  0.00     0.106 A 
ENDROOT
BRANCH  15  17
HETATM   17  C   UNK N   1     165.418 161.077 139.462  0.00  0.00     0.013 C 
HETATM   18  C   UNK N   1     164.026 161.242 138.844  0.00  0.00     0.015 C 
HETATM   19  C   UNK N   1     166.516 161.471 138.466  0.00  0.00     0.015 C 
ENDBRANCH  15  17
BRANCH  16  20
HETATM   20  O   UNK N   1     166.114 160.487 142.153  0.00  0.00    -0.357 OA
HETATM   21  H   UNK N   1     165.692 161.342 141.986  0.00  0.00     0.218 HD
ENDBRANCH  16  20
BRANCH  13  22
HETATM   22  O   UNK N   1     166.698 158.020 143.052  0.00  0.00    -0.357 OA
HETATM   23  H   UNK N   1     167.450 157.498 143.334  0.00  0.00     0.218 HD
ENDBRANCH  13  22
BRANCH   2  24
HETATM   24  C   UNK N   1     167.826 155.398 141.609  0.00  0.00     0.246 C 
HETATM   25  O   UNK N   1     168.334 155.452 142.718  0.00  0.00    -0.306 OA
ENDBRANCH   2  24
TORSDOF 4
ENDMDL
MODEL 9
REMARK VINA RESULT:      -6.2     20.365     23.539
REMARK  4 active torsions:
REMARK  status: ('A' for Active; 'I' for Inactive)
REMARK    1  A    between atoms: O_2  and  C_17 
REMARK    2  A    between atoms: O_3  and  C_20 
REMARK    3  A    between atoms: C_5  and  C_16 
REMARK    4  A    between atoms: C_19  and  C_21 
ROOT
HETATM    1  C   UNK N   1     135.125 140.616 152.854  0.00  0.00     0.013 C 
HETATM    2  C   UNK N   1     135.762 139.876 151.624  0.00  0.00     0.048 C 
HETATM    3  C   UNK N   1     136.199 141.342 153.781  0.00  0.00    -0.043 C 
HETATM    4  C   UNK N   1     136.427 141.029 150.754  0.00  0.00     0.022 C 
HETATM    5  C   UNK N   1     137.417 141.843 152.934  0.00  0.00     0.009 C 
HETATM    6  C   UNK N   1     134.144 139.722 153.611  0.00  0.00     0.011 C 
HETATM    7  C   UNK N   1     136.963 142.255 151.540  0.00  0.00     0.002 C 
HETATM    8  C   UNK N   1     134.705 139.088 150.799  0.00  0.00    -0.000 A 
HETATM    9  C   UNK N   1     132.979 139.348 152.701  0.00  0.00     0.040 C 
HETATM   10  C   UNK N   1     135.515 142.564 154.450  0.00  0.00     0.015 C 
HETATM   11  C   UNK N   1     136.750 140.448 154.920  0.00  0.00     0.015 C 
HETATM   12  C   UNK N   1     133.391 138.886 151.322  0.00  0.00    -0.047 A 
HETATM   13  C   UNK N   1     134.997 138.546 149.504  0.00  0.00     0.107 A 
HETATM   14  C   UNK N   1     132.421 138.223 150.559  0.00  0.00     0.018 A 
HETATM   15  C   UNK N   1     132.705 137.736 149.279  0.00  0.00    -0.018 A 
HETATM   16  C   UNK N   1     133.995 137.910 148.750  0.00  0.00     0.106 A 
ENDROOT
BRANCH  15  17
HETATM   17  C   UNK N   1     131.641 136.989 148.480  0.00  0.00     0.013 C 
HETATM   18  C   UNK N   1     130.277 137.682 148.567  0.00  0.00     0.015 C 
HETATM   19  C   UNK N   1     131.550 135.530 148.943  0.00  0.00     0.015 C 
ENDBRANCH  15  17
BRANCH  16  20
HETATM   20  O   UNK N   1     134.273 137.444 147.512  0.00  0.00    -0.357 OA
HETATM   21  H   UNK N   1     134.100 137.951 146.705  0.00  0.00     0.218 HD
ENDBRANCH  16  20
BRANCH  13  22
HETATM   22  O   UNK N   1     136.231 138.598 148.952  0.00  0.00    -0.357 OA
HETATM   23  H   UNK N   1     136.722 139.404 148.791  0.00  0.00     0.218 HD
ENDBRANCH  13  22
BRANCH   2  24
HETATM   24  C   UNK N   1     136.760 138.825 152.099  0.00  0.00     0.246 C 
HETATM   25  O   UNK N   1     137.837 138.661 151.547  0.00  0.00    -0.306 OA
ENDBRANCH   2  24
TORSDOF 4
ENDMDL
