MODEL 1
REMARK VINA RESULT:      -6.9      0.000      0.000
REMARK  5 active torsions:
REMARK  status: ('A' for Active; 'I' for Inactive)
REMARK    1  A    between atoms: O_1  and  C_17 
REMARK    2  A    between atoms: O_3  and  C_18 
REMARK    3  A    between atoms: O_4  and  C_21 
REMARK    4  A    between atoms: C_6  and  C_17 
REMARK    5  A    between atoms: C_20  and  C_22 
ROOT
HETATM    1  C   UNK N   1     150.256 157.375 151.591  0.00  0.00     0.017 C 
HETATM    2  C   UNK N   1     151.206 156.451 150.751  0.00  0.00     0.080 C 
HETATM    3  C   UNK N   1     151.027 158.535 152.363  0.00  0.00    -0.043 C 
HETATM    4  C   UNK N   1     151.853 157.392 149.649  0.00  0.00     0.026 C 
HETATM    5  C   UNK N   1     152.292 158.995 151.561  0.00  0.00     0.009 C 
HETATM    6  C   UNK N   1     149.286 156.574 152.466  0.00  0.00     0.011 C 
HETATM    7  C   UNK N   1     152.057 158.874 150.060  0.00  0.00     0.002 C 
HETATM    8  C   UNK N   1     150.439 155.279 150.092  0.00  0.00     0.004 A 
HETATM    9  C   UNK N   1     148.391 155.694 151.598  0.00  0.00     0.040 C 
HETATM   10  C   UNK N   1     150.056 159.735 152.517  0.00  0.00     0.015 C 
HETATM   11  C   UNK N   1     151.495 158.140 153.786  0.00  0.00     0.015 C 
HETATM   12  C   UNK N   1     149.117 154.947 150.504  0.00  0.00    -0.047 A 
HETATM   13  C   UNK N   1     151.046 154.495 149.074  0.00  0.00     0.107 A 
HETATM   14  C   UNK N   1     148.433 153.891 149.885  0.00  0.00     0.018 A 
HETATM   15  C   UNK N   1     149.031 153.127 148.876  0.00  0.00    -0.018 A 
HETATM   16  C   UNK N   1     150.344 153.432 148.474  0.00  0.00     0.108 A 
ENDROOT
BRANCH   2  17
HETATM   17  C   UNK N   1     152.269 155.778 151.632  0.00  0.00     0.154 C 
HETATM   18  O   UNK N   1     153.459 155.866 151.363  0.00  0.00    -0.649 OA
BRANCH  17  19
HETATM   19  O   UNK N   1     151.888 155.029 152.689  0.00  0.00    -0.775 OA
HETATM   20  H   UNK N   1     151.737 155.422 153.560  0.00  0.00     0.167 HD
ENDBRANCH  17  19
ENDBRANCH   2  17
BRANCH  13  21
HETATM   21  O   UNK N   1     152.302 154.777 148.664  0.00  0.00    -0.357 OA
HETATM   22  H   UNK N   1     152.593 154.681 147.747  0.00  0.00     0.218 HD
ENDBRANCH  13  21
BRANCH  16  23
HETATM   23  O   UNK N   1     150.944 152.694 147.513  0.00  0.00    -0.353 OA
HETATM   24  C   UNK N   1     151.919 151.772 147.825  0.00  0.00     0.210 C 
ENDBRANCH  16  23
BRANCH  15  25
HETATM   25  C   UNK N   1     148.274 151.967 148.236  0.00  0.00     0.013 C 
HETATM   26  C   UNK N   1     146.758 152.182 148.312  0.00  0.00     0.015 C 
HETATM   27  C   UNK N   1     148.679 150.634 148.877  0.00  0.00     0.015 C 
ENDBRANCH  15  25
TORSDOF 5
ENDMDL
MODEL 2
REMARK VINA RESULT:      -6.7     27.179     29.417
REMARK  5 active torsions:
REMARK  status: ('A' for Active; 'I' for Inactive)
REMARK    1  A    between atoms: O_1  and  C_17 
REMARK    2  A    between atoms: O_3  and  C_18 
REMARK    3  A    between atoms: O_4  and  C_21 
REMARK    4  A    between atoms: C_6  and  C_17 
REMARK    5  A    between atoms: C_20  and  C_22 
ROOT
HETATM    1  C   UNK N   1     153.841 133.014 167.696  0.00  0.00     0.017 C 
HETATM    2  C   UNK N   1     154.838 131.812 167.540  0.00  0.00     0.080 C 
HETATM    3  C   UNK N   1     152.397 132.573 168.203  0.00  0.00    -0.043 C 
HETATM    4  C   UNK N   1     155.020 131.216 168.999  0.00  0.00     0.026 C 
HETATM    5  C   UNK N   1     152.494 131.323 169.145  0.00  0.00     0.009 C 
HETATM    6  C   UNK N   1     153.824 133.922 166.462  0.00  0.00     0.011 C 
HETATM    7  C   UNK N   1     153.793 131.341 169.939  0.00  0.00     0.002 C 
HETATM    8  C   UNK N   1     156.199 132.261 166.955  0.00  0.00     0.004 A 
HETATM    9  C   UNK N   1     155.206 134.524 166.227  0.00  0.00     0.040 C 
HETATM   10  C   UNK N   1     151.783 133.759 168.992  0.00  0.00     0.015 C 
HETATM   11  C   UNK N   1     151.411 132.223 167.062  0.00  0.00     0.015 C 
HETATM   12  C   UNK N   1     156.347 133.541 166.349  0.00  0.00    -0.047 A 
HETATM   13  C   UNK N   1     157.326 131.398 166.994  0.00  0.00     0.107 A 
HETATM   14  C   UNK N   1     157.592 133.936 165.837  0.00  0.00     0.018 A 
HETATM   15  C   UNK N   1     158.703 133.086 165.885  0.00  0.00    -0.018 A 
HETATM   16  C   UNK N   1     158.564 131.810 166.464  0.00  0.00     0.108 A 
ENDROOT
BRANCH   2  17
HETATM   17  C   UNK N   1     154.313 130.763 166.549  0.00  0.00     0.154 C 
HETATM   18  O   UNK N   1     153.949 131.082 165.426  0.00  0.00    -0.649 OA
BRANCH  17  19
HETATM   19  O   UNK N   1     154.195 129.475 166.936  0.00  0.00    -0.775 OA
HETATM   20  H   UNK N   1     153.330 129.070 167.090  0.00  0.00     0.167 HD
ENDBRANCH  17  19
ENDBRANCH   2  17
BRANCH  13  21
HETATM   21  O   UNK N   1     157.220 130.173 167.555  0.00  0.00    -0.357 OA
HETATM   22  H   UNK N   1     157.970 129.701 167.939  0.00  0.00     0.218 HD
ENDBRANCH  13  21
BRANCH  16  23
HETATM   23  O   UNK N   1     159.622 130.969 166.505  0.00  0.00    -0.353 OA
HETATM   24  C   UNK N   1     160.459 130.927 167.599  0.00  0.00     0.210 C 
ENDBRANCH  16  23
BRANCH  15  25
HETATM   25  C   UNK N   1     160.040 133.529 165.300  0.00  0.00     0.013 C 
HETATM   26  C   UNK N   1     160.244 135.040 165.461  0.00  0.00     0.015 C 
HETATM   27  C   UNK N   1     160.156 133.108 163.830  0.00  0.00     0.015 C 
ENDBRANCH  15  25
TORSDOF 5
ENDMDL
MODEL 3
REMARK VINA RESULT:      -6.7      4.308      8.311
REMARK  5 active torsions:
REMARK  status: ('A' for Active; 'I' for Inactive)
REMARK    1  A    between atoms: O_1  and  C_17 
REMARK    2  A    between atoms: O_3  and  C_18 
REMARK    3  A    between atoms: O_4  and  C_21 
REMARK    4  A    between atoms: C_6  and  C_17 
REMARK    5  A    between atoms: C_20  and  C_22 
ROOT
HETATM    1  C   UNK N   1     151.825 157.319 153.740  0.00  0.00     0.017 C 
HETATM    2  C   UNK N   1     151.473 158.813 154.062  0.00  0.00     0.080 C 
HETATM    3  C   UNK N   1     152.438 157.115 152.284  0.00  0.00    -0.043 C 
HETATM    4  C   UNK N   1     152.854 159.595 154.026  0.00  0.00     0.026 C 
HETATM    5  C   UNK N   1     153.261 158.375 151.844  0.00  0.00     0.009 C 
HETATM    6  C   UNK N   1     150.677 156.363 154.078  0.00  0.00     0.011 C 
HETATM    7  C   UNK N   1     153.920 159.040 153.045  0.00  0.00     0.002 C 
HETATM    8  C   UNK N   1     150.793 158.963 155.444  0.00  0.00     0.004 A 
HETATM    9  C   UNK N   1     150.352 156.428 155.568  0.00  0.00     0.040 C 
HETATM   10  C   UNK N   1     153.377 155.882 152.328  0.00  0.00     0.015 C 
HETATM   11  C   UNK N   1     151.377 156.845 151.189  0.00  0.00     0.015 C 
HETATM   12  C   UNK N   1     150.279 157.827 156.133  0.00  0.00    -0.047 A 
HETATM   13  C   UNK N   1     150.648 160.241 156.048  0.00  0.00     0.107 A 
HETATM   14  C   UNK N   1     149.679 157.981 157.391  0.00  0.00     0.018 A 
HETATM   15  C   UNK N   1     149.546 159.241 157.987  0.00  0.00    -0.018 A 
HETATM   16  C   UNK N   1     150.031 160.374 157.307  0.00  0.00     0.108 A 
ENDROOT
BRANCH   2  17
HETATM   17  C   UNK N   1     150.459 159.387 153.062  0.00  0.00     0.154 C 
HETATM   18  O   UNK N   1     150.712 160.392 152.413  0.00  0.00    -0.649 OA
BRANCH  17  19
HETATM   19  O   UNK N   1     149.245 158.810 152.932  0.00  0.00    -0.775 OA
HETATM   20  H   UNK N   1     149.096 158.077 152.319  0.00  0.00     0.167 HD
ENDBRANCH  17  19
ENDBRANCH   2  17
BRANCH  13  21
HETATM   21  O   UNK N   1     151.117 161.342 155.419  0.00  0.00    -0.357 OA
HETATM   22  H   UNK N   1     151.639 162.022 155.865  0.00  0.00     0.218 HD
ENDBRANCH  13  21
BRANCH  16  23
HETATM   23  O   UNK N   1     149.897 161.600 157.860  0.00  0.00    -0.353 OA
HETATM   24  C   UNK N   1     148.874 162.443 157.485  0.00  0.00     0.210 C 
ENDBRANCH  16  23
BRANCH  15  25
HETATM   25  C   UNK N   1     148.867 159.384 159.345  0.00  0.00     0.013 C 
HETATM   26  C   UNK N   1     149.228 158.219 160.274  0.00  0.00     0.015 C 
HETATM   27  C   UNK N   1     147.348 159.512 159.182  0.00  0.00     0.015 C 
ENDBRANCH  15  25
TORSDOF 5
ENDMDL
MODEL 4
REMARK VINA RESULT:      -6.7     20.860     23.440
REMARK  5 active torsions:
REMARK  status: ('A' for Active; 'I' for Inactive)
REMARK    1  A    between atoms: O_1  and  C_17 
REMARK    2  A    between atoms: O_3  and  C_18 
REMARK    3  A    between atoms: O_4  and  C_21 
REMARK    4  A    between atoms: C_6  and  C_17 
REMARK    5  A    between atoms: C_20  and  C_22 
ROOT
HETATM    1  C   UNK N   1     145.032 133.965 144.454  0.00  0.00     0.017 C 
HETATM    2  C   UNK N   1     144.168 133.998 143.145  0.00  0.00     0.080 C 
HETATM    3  C   UNK N   1     146.172 132.853 144.427  0.00  0.00    -0.043 C 
HETATM    4  C   UNK N   1     145.171 134.388 141.980  0.00  0.00     0.026 C 
HETATM    5  C   UNK N   1     146.695 132.623 142.967  0.00  0.00     0.009 C 
HETATM    6  C   UNK N   1     144.173 133.954 145.722  0.00  0.00     0.011 C 
HETATM    7  C   UNK N   1     146.636 133.914 142.161  0.00  0.00     0.002 C 
HETATM    8  C   UNK N   1     143.011 135.022 143.242  0.00  0.00     0.004 A 
HETATM    9  C   UNK N   1     143.315 135.214 145.793  0.00  0.00     0.040 C 
HETATM   10  C   UNK N   1     147.344 133.346 145.317  0.00  0.00     0.015 C 
HETATM   11  C   UNK N   1     145.723 131.479 144.984  0.00  0.00     0.015 C 
HETATM   12  C   UNK N   1     142.633 135.582 144.496  0.00  0.00    -0.047 A 
HETATM   13  C   UNK N   1     142.287 135.411 142.083  0.00  0.00     0.107 A 
HETATM   14  C   UNK N   1     141.592 136.519 144.561  0.00  0.00     0.018 A 
HETATM   15  C   UNK N   1     140.887 136.908 143.416  0.00  0.00    -0.018 A 
HETATM   16  C   UNK N   1     141.237 136.346 142.174  0.00  0.00     0.108 A 
ENDROOT
BRANCH   2  17
HETATM   17  C   UNK N   1     143.478 132.651 142.886  0.00  0.00     0.154 C 
HETATM   18  O   UNK N   1     143.651 132.044 141.838  0.00  0.00    -0.649 OA
BRANCH  17  19
HETATM   19  O   UNK N   1     142.621 132.148 143.801  0.00  0.00    -0.775 OA
HETATM   20  H   UNK N   1     141.743 132.530 143.936  0.00  0.00     0.167 HD
ENDBRANCH  17  19
ENDBRANCH   2  17
BRANCH  13  21
HETATM   21  O   UNK N   1     142.613 134.894 140.878  0.00  0.00    -0.357 OA
HETATM   22  H   UNK N   1     142.576 135.403 140.057  0.00  0.00     0.218 HD
ENDBRANCH  13  21
BRANCH  16  23
HETATM   23  O   UNK N   1     140.557 136.696 141.060  0.00  0.00    -0.353 OA
HETATM   24  C   UNK N   1     139.465 135.971 140.633  0.00  0.00     0.210 C 
ENDBRANCH  16  23
BRANCH  15  25
HETATM   25  C   UNK N   1     139.742 137.910 143.517  0.00  0.00     0.013 C 
HETATM   26  C   UNK N   1     140.252 139.299 143.916  0.00  0.00     0.015 C 
HETATM   27  C   UNK N   1     138.669 137.412 144.493  0.00  0.00     0.015 C 
ENDBRANCH  15  25
TORSDOF 5
ENDMDL
MODEL 5
REMARK VINA RESULT:      -6.6     29.785     33.681
REMARK  5 active torsions:
REMARK  status: ('A' for Active; 'I' for Inactive)
REMARK    1  A    between atoms: O_1  and  C_17 
REMARK    2  A    between atoms: O_3  and  C_18 
REMARK    3  A    between atoms: O_4  and  C_21 
REMARK    4  A    between atoms: C_6  and  C_17 
REMARK    5  A    between atoms: C_20  and  C_22 
ROOT
HETATM    1  C   UNK N   1     158.383 121.110 153.268  0.00  0.00     0.017 C 
HETATM    2  C   UNK N   1     157.867 122.565 153.540  0.00  0.00     0.080 C 
HETATM    3  C   UNK N   1     157.377 119.981 153.770  0.00  0.00    -0.043 C 
HETATM    4  C   UNK N   1     156.538 122.715 152.687  0.00  0.00     0.026 C 
HETATM    5  C   UNK N   1     155.892 120.470 153.666  0.00  0.00     0.009 C 
HETATM    6  C   UNK N   1     159.832 120.908 153.723  0.00  0.00     0.011 C 
HETATM    7  C   UNK N   1     155.713 121.417 152.486  0.00  0.00     0.002 C 
HETATM    8  C   UNK N   1     158.907 123.635 153.129  0.00  0.00     0.004 A 
HETATM    9  C   UNK N   1     160.762 121.853 152.969  0.00  0.00     0.040 C 
HETATM   10  C   UNK N   1     157.568 118.734 152.867  0.00  0.00     0.015 C 
HETATM   11  C   UNK N   1     157.619 119.529 155.231  0.00  0.00     0.015 C 
HETATM   12  C   UNK N   1     160.259 123.274 152.861  0.00  0.00    -0.047 A 
HETATM   13  C   UNK N   1     158.542 125.004 153.028  0.00  0.00     0.107 A 
HETATM   14  C   UNK N   1     161.184 124.255 152.476  0.00  0.00     0.018 A 
HETATM   15  C   UNK N   1     160.818 125.602 152.368  0.00  0.00    -0.018 A 
HETATM   16  C   UNK N   1     159.490 125.974 152.650  0.00  0.00     0.108 A 
ENDROOT
BRANCH   2  17
HETATM   17  C   UNK N   1     157.623 122.812 155.036  0.00  0.00     0.154 C 
HETATM   18  O   UNK N   1     156.528 123.172 155.446  0.00  0.00    -0.649 OA
BRANCH  17  19
HETATM   19  O   UNK N   1     158.642 122.684 155.912  0.00  0.00    -0.775 OA
HETATM   20  H   UNK N   1     158.580 122.099 156.679  0.00  0.00     0.167 HD
ENDBRANCH  17  19
ENDBRANCH   2  17
BRANCH  13  21
HETATM   21  O   UNK N   1     157.270 125.383 153.283  0.00  0.00    -0.357 OA
HETATM   22  H   UNK N   1     157.019 125.909 154.054  0.00  0.00     0.218 HD
ENDBRANCH  13  21
BRANCH  16  23
HETATM   23  O   UNK N   1     159.122 127.272 152.569  0.00  0.00    -0.353 OA
HETATM   24  C   UNK N   1     159.186 128.103 153.666  0.00  0.00     0.210 C 
ENDBRANCH  16  23
BRANCH  15  25
HETATM   25  C   UNK N   1     161.849 126.653 151.972  0.00  0.00     0.013 C 
HETATM   26  C   UNK N   1     162.763 126.142 150.852  0.00  0.00     0.015 C 
HETATM   27  C   UNK N   1     162.665 127.102 153.190  0.00  0.00     0.015 C 
ENDBRANCH  15  25
TORSDOF 5
ENDMDL
MODEL 6
REMARK VINA RESULT:      -6.5     18.937     23.729
REMARK  5 active torsions:
REMARK  status: ('A' for Active; 'I' for Inactive)
REMARK    1  A    between atoms: O_1  and  C_17 
REMARK    2  A    between atoms: O_3  and  C_18 
REMARK    3  A    between atoms: O_4  and  C_21 
REMARK    4  A    between atoms: C_6  and  C_17 
REMARK    5  A    between atoms: C_20  and  C_22 
ROOT
HETATM    1  C   UNK N   1     133.646 137.768 147.814  0.00  0.00     0.017 C 
HETATM    2  C   UNK N   1     133.874 137.802 149.365  0.00  0.00     0.080 C 
HETATM    3  C   UNK N   1     132.656 136.610 147.348  0.00  0.00    -0.043 C 
HETATM    4  C   UNK N   1     132.455 138.121 150.000  0.00  0.00     0.026 C 
HETATM    5  C   UNK N   1     131.577 136.321 148.448  0.00  0.00     0.009 C 
HETATM    6  C   UNK N   1     134.960 137.825 147.028  0.00  0.00     0.011 C 
HETATM    7  C   UNK N   1     131.228 137.592 149.212  0.00  0.00     0.002 C 
HETATM    8  C   UNK N   1     134.912 138.874 149.774  0.00  0.00     0.004 A 
HETATM    9  C   UNK N   1     135.705 139.120 147.335  0.00  0.00     0.040 C 
HETATM   10  C   UNK N   1     131.948 137.078 146.050  0.00  0.00     0.015 C 
HETATM   11  C   UNK N   1     133.364 135.271 147.026  0.00  0.00     0.015 C 
HETATM   12  C   UNK N   1     135.757 139.482 148.801  0.00  0.00    -0.047 A 
HETATM   13  C   UNK N   1     135.060 139.263 151.132  0.00  0.00     0.107 A 
HETATM   14  C   UNK N   1     136.682 140.462 149.188  0.00  0.00     0.018 A 
HETATM   15  C   UNK N   1     136.818 140.850 150.527  0.00  0.00    -0.018 A 
HETATM   16  C   UNK N   1     136.003 140.242 151.501  0.00  0.00     0.108 A 
ENDROOT
BRANCH   2  17
HETATM   17  C   UNK N   1     134.453 136.478 149.884  0.00  0.00     0.154 C 
HETATM   18  O   UNK N   1     135.484 136.014 149.416  0.00  0.00    -0.649 OA
BRANCH  17  19
HETATM   19  O   UNK N   1     133.791 135.781 150.832  0.00  0.00    -0.775 OA
HETATM   20  H   UNK N   1     132.870 135.511 150.711  0.00  0.00     0.167 HD
ENDBRANCH  17  19
ENDBRANCH   2  17
BRANCH  13  21
HETATM   21  O   UNK N   1     134.280 138.702 152.083  0.00  0.00    -0.357 OA
HETATM   22  H   UNK N   1     134.032 137.768 152.080  0.00  0.00     0.218 HD
ENDBRANCH  13  21
BRANCH  16  23
HETATM   23  O   UNK N   1     136.131 140.590 152.800  0.00  0.00    -0.353 OA
HETATM   24  C   UNK N   1     136.976 139.902 153.644  0.00  0.00     0.210 C 
ENDBRANCH  16  23
BRANCH  15  25
HETATM   25  C   UNK N   1     137.849 141.900 150.926  0.00  0.00     0.013 C 
HETATM   26  C   UNK N   1     137.226 143.300 150.975  0.00  0.00     0.015 C 
HETATM   27  C   UNK N   1     139.056 141.863 149.981  0.00  0.00     0.015 C 
ENDBRANCH  15  25
TORSDOF 5
ENDMDL
MODEL 7
REMARK VINA RESULT:      -6.3     22.033     26.877
REMARK  5 active torsions:
REMARK  status: ('A' for Active; 'I' for Inactive)
REMARK    1  A    between atoms: O_1  and  C_17 
REMARK    2  A    between atoms: O_3  and  C_18 
REMARK    3  A    between atoms: O_4  and  C_21 
REMARK    4  A    between atoms: C_6  and  C_17 
REMARK    5  A    between atoms: C_20  and  C_22 
ROOT
HETATM    1  C   UNK N   1     130.018 136.146 148.284  0.00  0.00     0.017 C 
HETATM    2  C   UNK N   1     131.185 135.857 147.277  0.00  0.00     0.080 C 
HETATM    3  C   UNK N   1     128.723 135.256 148.021  0.00  0.00    -0.043 C 
HETATM    4  C   UNK N   1     131.600 134.346 147.525  0.00  0.00     0.026 C 
HETATM    5  C   UNK N   1     129.117 133.855 147.438  0.00  0.00     0.009 C 
HETATM    6  C   UNK N   1     129.732 137.643 148.434  0.00  0.00     0.011 C 
HETATM    7  C   UNK N   1     130.462 133.399 147.987  0.00  0.00     0.002 C 
HETATM    8  C   UNK N   1     132.389 136.802 147.499  0.00  0.00     0.004 A 
HETATM    9  C   UNK N   1     130.965 138.368 148.967  0.00  0.00     0.040 C 
HETATM   10  C   UNK N   1     127.993 135.059 149.376  0.00  0.00     0.015 C 
HETATM   11  C   UNK N   1     127.708 135.900 147.044  0.00  0.00     0.015 C 
HETATM   12  C   UNK N   1     132.262 137.972 148.302  0.00  0.00    -0.047 A 
HETATM   13  C   UNK N   1     133.645 136.534 146.892  0.00  0.00     0.107 A 
HETATM   14  C   UNK N   1     133.369 138.809 148.504  0.00  0.00     0.018 A 
HETATM   15  C   UNK N   1     134.608 138.537 147.911  0.00  0.00    -0.018 A 
HETATM   16  C   UNK N   1     134.741 137.395 147.100  0.00  0.00     0.108 A 
ENDROOT
BRANCH   2  17
HETATM   17  C   UNK N   1     130.755 136.106 145.824  0.00  0.00     0.154 C 
HETATM   18  O   UNK N   1     130.904 135.248 144.965  0.00  0.00    -0.649 OA
BRANCH  17  19
HETATM   19  O   UNK N   1     130.255 137.309 145.468  0.00  0.00    -0.775 OA
HETATM   20  H   UNK N   1     129.385 137.394 145.055  0.00  0.00     0.167 HD
ENDBRANCH  17  19
ENDBRANCH   2  17
BRANCH  13  21
HETATM   21  O   UNK N   1     133.801 135.437 146.118  0.00  0.00    -0.357 OA
HETATM   22  H   UNK N   1     134.651 135.170 145.744  0.00  0.00     0.218 HD
ENDBRANCH  13  21
BRANCH  16  23
HETATM   23  O   UNK N   1     135.925 137.124 146.506  0.00  0.00    -0.353 OA
HETATM   24  C   UNK N   1     136.181 137.522 145.211  0.00  0.00     0.210 C 
ENDBRANCH  16  23
BRANCH  15  25
HETATM   25  C   UNK N   1     135.789 139.476 148.127  0.00  0.00     0.013 C 
HETATM   26  C   UNK N   1     136.327 139.376 149.559  0.00  0.00     0.015 C 
HETATM   27  C   UNK N   1     135.407 140.920 147.778  0.00  0.00     0.015 C 
ENDBRANCH  15  25
TORSDOF 5
ENDMDL
MODEL 8
REMARK VINA RESULT:      -6.2      8.984     12.625
REMARK  5 active torsions:
REMARK  status: ('A' for Active; 'I' for Inactive)
REMARK    1  A    between atoms: O_1  and  C_17 
REMARK    2  A    between atoms: O_3  and  C_18 
REMARK    3  A    between atoms: O_4  and  C_21 
REMARK    4  A    between atoms: C_6  and  C_17 
REMARK    5  A    between atoms: C_20  and  C_22 
ROOT
HETATM    1  C   UNK N   1     153.715 168.115 152.802  0.00  0.00     0.017 C 
HETATM    2  C   UNK N   1     152.245 168.171 153.345  0.00  0.00     0.080 C 
HETATM    3  C   UNK N   1     154.359 169.555 152.577  0.00  0.00    -0.043 C 
HETATM    4  C   UNK N   1     152.340 168.865 154.768  0.00  0.00     0.026 C 
HETATM    5  C   UNK N   1     153.794 170.587 153.612  0.00  0.00     0.009 C 
HETATM    6  C   UNK N   1     153.861 167.168 151.607  0.00  0.00     0.011 C 
HETATM    7  C   UNK N   1     153.476 169.908 154.938  0.00  0.00     0.002 C 
HETATM    8  C   UNK N   1     151.617 166.761 153.461  0.00  0.00     0.004 A 
HETATM    9  C   UNK N   1     153.486 165.744 152.009  0.00  0.00     0.040 C 
HETATM   10  C   UNK N   1     155.893 169.429 152.768  0.00  0.00     0.015 C 
HETATM   11  C   UNK N   1     154.120 170.135 151.161  0.00  0.00     0.015 C 
HETATM   12  C   UNK N   1     152.222 165.637 152.829  0.00  0.00    -0.047 A 
HETATM   13  C   UNK N   1     150.411 166.560 154.185  0.00  0.00     0.107 A 
HETATM   14  C   UNK N   1     151.645 164.365 152.957  0.00  0.00     0.018 A 
HETATM   15  C   UNK N   1     150.462 164.170 153.680  0.00  0.00    -0.018 A 
HETATM   16  C   UNK N   1     149.844 165.276 154.292  0.00  0.00     0.108 A 
ENDROOT
BRANCH   2  17
HETATM   17  C   UNK N   1     151.316 168.936 152.391  0.00  0.00     0.154 C 
HETATM   18  O   UNK N   1     150.660 169.892 152.781  0.00  0.00    -0.649 OA
BRANCH  17  19
HETATM   19  O   UNK N   1     151.173 168.519 151.115  0.00  0.00    -0.775 OA
HETATM   20  H   UNK N   1     151.477 167.646 150.831  0.00  0.00     0.167 HD
ENDBRANCH  17  19
ENDBRANCH   2  17
BRANCH  13  21
HETATM   21  O   UNK N   1     149.806 167.606 154.791  0.00  0.00    -0.357 OA
HETATM   22  H   UNK N   1     149.506 168.392 154.315  0.00  0.00     0.218 HD
ENDBRANCH  13  21
BRANCH  16  23
HETATM   23  O   UNK N   1     148.692 165.109 154.979  0.00  0.00    -0.353 OA
HETATM   24  C   UNK N   1     148.699 164.876 156.338  0.00  0.00     0.210 C 
ENDBRANCH  16  23
BRANCH  15  25
HETATM   25  C   UNK N   1     149.843 162.780 153.784  0.00  0.00     0.013 C 
HETATM   26  C   UNK N   1     150.919 161.688 153.769  0.00  0.00     0.015 C 
HETATM   27  C   UNK N   1     148.813 162.559 152.669  0.00  0.00     0.015 C 
ENDBRANCH  15  25
TORSDOF 5
ENDMDL
MODEL 9
REMARK VINA RESULT:      -6.2     27.135     29.290
REMARK  5 active torsions:
REMARK  status: ('A' for Active; 'I' for Inactive)
REMARK    1  A    between atoms: O_1  and  C_17 
REMARK    2  A    between atoms: O_3  and  C_18 
REMARK    3  A    between atoms: O_4  and  C_21 
REMARK    4  A    between atoms: C_6  and  C_17 
REMARK    5  A    between atoms: C_20  and  C_22 
ROOT
HETATM    1  C   UNK N   1     140.678 150.017 124.643  0.00  0.00     0.017 C 
HETATM    2  C   UNK N   1     141.097 150.396 123.180  0.00  0.00     0.080 C 
HETATM    3  C   UNK N   1     139.521 148.924 124.704  0.00  0.00    -0.043 C 
HETATM    4  C   UNK N   1     141.681 149.066 122.543  0.00  0.00     0.026 C 
HETATM    5  C   UNK N   1     139.615 147.943 123.485  0.00  0.00     0.009 C 
HETATM    6  C   UNK N   1     140.425 151.250 125.517  0.00  0.00     0.011 C 
HETATM    7  C   UNK N   1     141.064 147.740 123.061  0.00  0.00     0.002 C 
HETATM    8  C   UNK N   1     142.153 151.528 123.155  0.00  0.00     0.004 A 
HETATM    9  C   UNK N   1     141.692 152.092 125.626  0.00  0.00     0.040 C 
HETATM   10  C   UNK N   1     139.690 148.120 126.020  0.00  0.00     0.015 C 
HETATM   11  C   UNK N   1     138.093 149.522 124.713  0.00  0.00     0.015 C 
HETATM   12  C   UNK N   1     142.417 152.306 124.318  0.00  0.00    -0.047 A 
HETATM   13  C   UNK N   1     142.868 151.828 121.965  0.00  0.00     0.107 A 
HETATM   14  C   UNK N   1     143.388 153.317 124.280  0.00  0.00     0.018 A 
HETATM   15  C   UNK N   1     144.098 153.604 123.107  0.00  0.00    -0.018 A 
HETATM   16  C   UNK N   1     143.831 152.855 121.946  0.00  0.00     0.108 A 
ENDROOT
BRANCH   2  17
HETATM   17  C   UNK N   1     139.912 150.949 122.375  0.00  0.00     0.154 C 
HETATM   18  O   UNK N   1     139.570 150.434 121.320  0.00  0.00    -0.649 OA
BRANCH  17  19
HETATM   19  O   UNK N   1     139.267 152.055 122.804  0.00  0.00    -0.775 OA
HETATM   20  H   UNK N   1     139.020 152.765 122.196  0.00  0.00     0.167 HD
ENDBRANCH  17  19
ENDBRANCH   2  17
BRANCH  13  21
HETATM   21  O   UNK N   1     142.637 151.114 120.840  0.00  0.00    -0.357 OA
HETATM   22  H   UNK N   1     143.164 150.345 120.585  0.00  0.00     0.218 HD
ENDBRANCH  13  21
BRANCH  16  23
HETATM   23  O   UNK N   1     144.494 153.129 120.800  0.00  0.00    -0.353 OA
HETATM   24  C   UNK N   1     143.966 153.982 119.856  0.00  0.00     0.210 C 
ENDBRANCH  16  23
BRANCH  15  25
HETATM   25  C   UNK N   1     145.131 154.726 123.086  0.00  0.00     0.013 C 
HETATM   26  C   UNK N   1     146.112 154.602 124.257  0.00  0.00     0.015 C 
HETATM   27  C   UNK N   1     144.445 156.097 123.080  0.00  0.00     0.015 C 
ENDBRANCH  15  25
TORSDOF 5
ENDMDL
