MODEL 1
REMARK VINA RESULT:      -6.7      0.000      0.000
REMARK  1 active torsions:
REMARK  status: ('A' for Active; 'I' for Inactive)
REMARK       I    between atoms: N_6  and  C_14 
REMARK    1  A    between atoms: C_10  and  C_14 
ROOT
HETATM    1  N   UNK N   1     147.744 135.991 122.214  0.00  0.00    -0.351 N 
ATOM      2  HN  UNK N   1     148.410 135.228 122.084  1.00  0.00     0.166 HD
HETATM    3  N   UNK N   1     146.460 135.103 120.466  0.00  0.00    -0.352 N 
ATOM      4  HN  UNK N   1     147.146 134.355 120.364  1.00  0.00     0.166 HD
HETATM    5  C   UNK N   1     145.720 137.096 121.578  0.00  0.00     0.009 A 
HETATM    6  C   UNK N   1     145.941 138.063 122.569  0.00  0.00     0.033 A 
HETATM    7  C   UNK N   1     146.652 136.052 121.417  0.00  0.00     0.115 A 
HETATM    8  C   UNK N   1     147.087 137.983 123.392  0.00  0.00     0.048 A 
HETATM    9  C   UNK N   1     144.597 137.136 120.738  0.00  0.00     0.016 A 
HETATM   10  C   UNK N   1     147.982 136.912 123.181  0.00  0.00     0.106 A 
HETATM   11  C   UNK N   1     144.427 136.144 119.767  0.00  0.00     0.018 A 
HETATM   12  C   UNK N   1     145.378 135.127 119.645  0.00  0.00     0.089 A 
ENDROOT
BRANCH   8  13
HETATM   13  C   UNK N   1     147.322 139.017 124.455  0.00  0.00     0.250 C 
HETATM   14  O   UNK N   1     146.433 139.258 125.258  0.00  0.00    -0.268 OA
HETATM   15  N   UNK N   1     148.494 139.697 124.554  0.00  0.00    -0.366 N 
HETATM   16  H   UNK N   1     149.279 139.546 123.913  0.00  0.00     0.159 HD
HETATM   17  H   UNK N   1     148.619 140.400 125.298  0.00  0.00     0.159 HD
ENDBRANCH   8  13
TORSDOF 1
ENDMDL
MODEL 2
REMARK VINA RESULT:      -6.3      3.162      5.048
REMARK  1 active torsions:
REMARK  status: ('A' for Active; 'I' for Inactive)
REMARK       I    between atoms: N_6  and  C_14 
REMARK    1  A    between atoms: C_10  and  C_14 
ROOT
HETATM    1  N   UNK N   1     148.234 135.218 122.825  0.00  0.00    -0.351 N 
ATOM      2  HN  UNK N   1     148.740 135.293 123.708  1.00  0.00     0.166 HD
HETATM    3  N   UNK N   1     147.303 137.329 123.235  0.00  0.00    -0.352 N 
ATOM      4  HN  UNK N   1     147.824 137.371 124.111  1.00  0.00     0.166 HD
HETATM    5  C   UNK N   1     146.715 136.151 121.230  0.00  0.00     0.009 A 
HETATM    6  C   UNK N   1     146.860 135.008 120.429  0.00  0.00     0.033 A 
HETATM    7  C   UNK N   1     147.425 136.233 122.443  0.00  0.00     0.115 A 
HETATM    8  C   UNK N   1     147.709 133.958 120.844  0.00  0.00     0.048 A 
HETATM    9  C   UNK N   1     145.884 137.217 120.858  0.00  0.00     0.016 A 
HETATM   10  C   UNK N   1     148.393 134.102 122.071  0.00  0.00     0.106 A 
HETATM   11  C   UNK N   1     145.778 138.333 121.694  0.00  0.00     0.018 A 
HETATM   12  C   UNK N   1     146.502 138.371 122.890  0.00  0.00     0.089 A 
ENDROOT
BRANCH   8  13
HETATM   13  C   UNK N   1     147.866 132.736 119.986  0.00  0.00     0.250 C 
HETATM   14  O   UNK N   1     148.985 132.285 119.791  0.00  0.00    -0.268 OA
HETATM   15  N   UNK N   1     146.802 132.113 119.415  0.00  0.00    -0.366 N 
HETATM   16  H   UNK N   1     145.838 132.439 119.535  0.00  0.00     0.159 HD
HETATM   17  H   UNK N   1     146.949 131.275 118.832  0.00  0.00     0.159 HD
ENDBRANCH   8  13
TORSDOF 1
ENDMDL
MODEL 3
REMARK VINA RESULT:      -5.9     31.645     33.789
REMARK  1 active torsions:
REMARK  status: ('A' for Active; 'I' for Inactive)
REMARK       I    between atoms: N_6  and  C_14 
REMARK    1  A    between atoms: C_10  and  C_14 
ROOT
HETATM    1  N   UNK N   1     167.180 132.563 148.335  0.00  0.00    -0.351 N 
ATOM      2  HN  UNK N   1     166.724 131.650 148.357  1.00  0.00     0.166 HD
HETATM    3  N   UNK N   1     165.200 133.474 147.470  0.00  0.00    -0.352 N 
ATOM      4  HN  UNK N   1     164.777 132.547 147.507  1.00  0.00     0.166 HD
HETATM    5  C   UNK N   1     167.092 134.903 147.842  0.00  0.00     0.009 A 
HETATM    6  C   UNK N   1     168.419 135.040 148.276  0.00  0.00     0.033 A 
HETATM    7  C   UNK N   1     166.484 133.633 147.883  0.00  0.00     0.115 A 
HETATM    8  C   UNK N   1     169.129 133.912 148.744  0.00  0.00     0.048 A 
HETATM    9  C   UNK N   1     166.349 135.994 147.369  0.00  0.00     0.016 A 
HETATM   10  C   UNK N   1     168.463 132.667 148.760  0.00  0.00     0.106 A 
HETATM   11  C   UNK N   1     165.028 135.800 146.951  0.00  0.00     0.018 A 
HETATM   12  C   UNK N   1     164.467 134.521 147.010  0.00  0.00     0.089 A 
ENDROOT
BRANCH   8  13
HETATM   13  C   UNK N   1     170.549 134.059 149.210  0.00  0.00     0.250 C 
HETATM   14  O   UNK N   1     171.236 133.059 149.351  0.00  0.00    -0.268 OA
HETATM   15  N   UNK N   1     171.097 135.272 149.484  0.00  0.00    -0.366 N 
HETATM   16  H   UNK N   1     170.577 136.150 149.390  0.00  0.00     0.159 HD
HETATM   17  H   UNK N   1     172.076 135.334 149.801  0.00  0.00     0.159 HD
ENDBRANCH   8  13
TORSDOF 1
ENDMDL
MODEL 4
REMARK VINA RESULT:      -5.8     26.408     28.450
REMARK  1 active torsions:
REMARK  status: ('A' for Active; 'I' for Inactive)
REMARK       I    between atoms: N_6  and  C_14 
REMARK    1  A    between atoms: C_10  and  C_14 
ROOT
HETATM    1  N   UNK N   1     151.264 149.300 145.767  0.00  0.00    -0.351 N 
ATOM      2  HN  UNK N   1     150.898 148.358 145.628  1.00  0.00     0.166 HD
HETATM    3  N   UNK N   1     151.384 148.861 148.066  0.00  0.00    -0.352 N 
ATOM      4  HN  UNK N   1     151.017 147.926 147.890  1.00  0.00     0.166 HD
HETATM    5  C   UNK N   1     152.073 151.005 147.238  0.00  0.00     0.009 A 
HETATM    6  C   UNK N   1     152.255 151.860 146.141  0.00  0.00     0.033 A 
HETATM    7  C   UNK N   1     151.568 149.708 147.021  0.00  0.00     0.115 A 
HETATM    8  C   UNK N   1     151.932 151.416 144.839  0.00  0.00     0.048 A 
HETATM    9  C   UNK N   1     152.380 151.402 148.547  0.00  0.00     0.016 A 
HETATM   10  C   UNK N   1     151.430 150.106 144.688  0.00  0.00     0.106 A 
HETATM   11  C   UNK N   1     152.180 150.508 149.603  0.00  0.00     0.018 A 
HETATM   12  C   UNK N   1     151.676 149.230 149.341  0.00  0.00     0.089 A 
ENDROOT
BRANCH   8  13
HETATM   13  C   UNK N   1     152.130 152.331 143.664  0.00  0.00     0.250 C 
HETATM   14  O   UNK N   1     151.980 153.534 143.814  0.00  0.00    -0.268 OA
HETATM   15  N   UNK N   1     152.469 151.863 142.433  0.00  0.00    -0.366 N 
HETATM   16  H   UNK N   1     152.607 150.867 142.237  0.00  0.00     0.159 HD
HETATM   17  H   UNK N   1     152.596 152.521 141.651  0.00  0.00     0.159 HD
ENDBRANCH   8  13
TORSDOF 1
ENDMDL
MODEL 5
REMARK VINA RESULT:      -5.8     34.096     36.575
REMARK  1 active torsions:
REMARK  status: ('A' for Active; 'I' for Inactive)
REMARK       I    between atoms: N_6  and  C_14 
REMARK    1  A    between atoms: C_10  and  C_14 
ROOT
HETATM    1  N   UNK N   1     152.461 158.675 151.535  0.00  0.00    -0.351 N 
ATOM      2  HN  UNK N   1     152.011 159.483 151.105  1.00  0.00     0.166 HD
HETATM    3  N   UNK N   1     151.529 157.326 149.860  0.00  0.00    -0.352 N 
ATOM      4  HN  UNK N   1     151.094 158.156 149.457  1.00  0.00     0.166 HD
HETATM    5  C   UNK N   1     152.901 156.323 151.554  0.00  0.00     0.009 A 
HETATM    6  C   UNK N   1     153.684 156.482 152.706  0.00  0.00     0.033 A 
HETATM    7  C   UNK N   1     152.290 157.454 150.977  0.00  0.00     0.115 A 
HETATM    8  C   UNK N   1     153.851 157.765 153.275  0.00  0.00     0.048 A 
HETATM    9  C   UNK N   1     152.707 155.070 150.955  0.00  0.00     0.016 A 
HETATM   10  C   UNK N   1     153.213 158.857 152.649  0.00  0.00     0.106 A 
HETATM   11  C   UNK N   1     151.918 154.970 149.805  0.00  0.00     0.018 A 
HETATM   12  C   UNK N   1     151.331 156.120 149.268  0.00  0.00     0.089 A 
ENDROOT
BRANCH   8  13
HETATM   13  C   UNK N   1     154.691 157.935 154.508  0.00  0.00     0.250 C 
HETATM   14  O   UNK N   1     155.602 157.150 154.722  0.00  0.00    -0.268 OA
HETATM   15  N   UNK N   1     154.470 158.938 155.399  0.00  0.00    -0.366 N 
HETATM   16  H   UNK N   1     153.722 159.629 155.283  0.00  0.00     0.159 HD
HETATM   17  H   UNK N   1     155.068 159.024 156.235  0.00  0.00     0.159 HD
ENDBRANCH   8  13
TORSDOF 1
ENDMDL
MODEL 6
REMARK VINA RESULT:      -5.7     36.536     39.151
REMARK  1 active torsions:
REMARK  status: ('A' for Active; 'I' for Inactive)
REMARK       I    between atoms: N_6  and  C_14 
REMARK    1  A    between atoms: C_10  and  C_14 
ROOT
HETATM    1  N   UNK N   1     143.226 151.338 158.012  0.00  0.00    -0.351 N 
ATOM      2  HN  UNK N   1     142.450 151.629 157.416  1.00  0.00     0.166 HD
HETATM    3  N   UNK N   1     144.434 150.779 156.082  0.00  0.00    -0.352 N 
ATOM      4  HN  UNK N   1     143.639 151.079 155.518  1.00  0.00     0.166 HD
HETATM    5  C   UNK N   1     145.437 150.452 158.237  0.00  0.00     0.009 A 
HETATM    6  C   UNK N   1     145.329 150.548 159.633  0.00  0.00     0.033 A 
HETATM    7  C   UNK N   1     144.354 150.860 157.435  0.00  0.00     0.115 A 
HETATM    8  C   UNK N   1     144.143 151.049 160.216  0.00  0.00     0.048 A 
HETATM    9  C   UNK N   1     146.593 149.961 157.614  0.00  0.00     0.016 A 
HETATM   10  C   UNK N   1     143.094 151.441 159.358  0.00  0.00     0.106 A 
HETATM   11  C   UNK N   1     146.647 149.889 156.219  0.00  0.00     0.018 A 
HETATM   12  C   UNK N   1     145.547 150.306 155.463  0.00  0.00     0.089 A 
ENDROOT
BRANCH   8  13
HETATM   13  C   UNK N   1     144.029 151.154 161.710  0.00  0.00     0.250 C 
HETATM   14  O   UNK N   1     143.209 151.921 162.192  0.00  0.00    -0.268 OA
HETATM   15  N   UNK N   1     144.809 150.421 162.548  0.00  0.00    -0.366 N 
HETATM   16  H   UNK N   1     145.517 149.761 162.211  0.00  0.00     0.159 HD
HETATM   17  H   UNK N   1     144.701 150.520 163.568  0.00  0.00     0.159 HD
ENDBRANCH   8  13
TORSDOF 1
ENDMDL
MODEL 7
REMARK VINA RESULT:      -5.7     60.001     62.203
REMARK  1 active torsions:
REMARK  status: ('A' for Active; 'I' for Inactive)
REMARK       I    between atoms: N_6  and  C_14 
REMARK    1  A    between atoms: C_10  and  C_14 
ROOT
HETATM    1  N   UNK N   1     133.544 165.168 176.031  0.00  0.00    -0.351 N 
ATOM      2  HN  UNK N   1     133.574 164.309 176.582  1.00  0.00     0.166 HD
HETATM    3  N   UNK N   1     134.964 166.168 177.605  0.00  0.00    -0.352 N 
ATOM      4  HN  UNK N   1     134.971 165.293 178.130  1.00  0.00     0.166 HD
HETATM    5  C   UNK N   1     134.215 167.442 175.716  0.00  0.00     0.009 A 
HETATM    6  C   UNK N   1     133.461 167.497 174.534  0.00  0.00     0.033 A 
HETATM    7  C   UNK N   1     134.241 166.246 176.458  0.00  0.00     0.115 A 
HETATM    8  C   UNK N   1     132.740 166.360 174.103  0.00  0.00     0.048 A 
HETATM    9  C   UNK N   1     134.946 168.545 176.182  0.00  0.00     0.016 A 
HETATM   10  C   UNK N   1     132.807 165.192 174.892  0.00  0.00     0.106 A 
HETATM   11  C   UNK N   1     135.681 168.433 177.365  0.00  0.00     0.018 A 
HETATM   12  C   UNK N   1     135.678 167.226 178.070  0.00  0.00     0.089 A 
ENDROOT
BRANCH   8  13
HETATM   13  C   UNK N   1     131.935 166.418 172.837  0.00  0.00     0.250 C 
HETATM   14  O   UNK N   1     131.179 167.361 172.654  0.00  0.00    -0.268 OA
HETATM   15  N   UNK N   1     132.017 165.452 171.884  0.00  0.00    -0.366 N 
HETATM   16  H   UNK N   1     132.627 164.634 171.975  0.00  0.00     0.159 HD
HETATM   17  H   UNK N   1     131.449 165.526 171.027  0.00  0.00     0.159 HD
ENDBRANCH   8  13
TORSDOF 1
ENDMDL
MODEL 8
REMARK VINA RESULT:      -5.6     29.915     31.859
REMARK  1 active torsions:
REMARK  status: ('A' for Active; 'I' for Inactive)
REMARK       I    between atoms: N_6  and  C_14 
REMARK    1  A    between atoms: C_10  and  C_14 
ROOT
HETATM    1  N   UNK N   1     135.612 140.804 153.029  0.00  0.00    -0.351 N 
ATOM      2  HN  UNK N   1     135.059 140.059 153.455  1.00  0.00     0.166 HD
HETATM    3  N   UNK N   1     135.610 139.591 151.023  0.00  0.00    -0.352 N 
ATOM      4  HN  UNK N   1     135.057 138.866 151.482  1.00  0.00     0.166 HD
HETATM    5  C   UNK N   1     136.743 141.703 151.123  0.00  0.00     0.009 A 
HETATM    6  C   UNK N   1     137.112 142.827 151.877  0.00  0.00     0.033 A 
HETATM    7  C   UNK N   1     135.980 140.688 151.732  0.00  0.00     0.115 A 
HETATM    8  C   UNK N   1     136.718 142.930 153.230  0.00  0.00     0.048 A 
HETATM    9  C   UNK N   1     137.112 141.558 149.778  0.00  0.00     0.016 A 
HETATM   10  C   UNK N   1     135.954 141.879 153.782  0.00  0.00     0.106 A 
HETATM   11  C   UNK N   1     136.715 140.417 149.074  0.00  0.00     0.018 A 
HETATM   12  C   UNK N   1     135.958 139.435 149.720  0.00  0.00     0.089 A 
ENDROOT
BRANCH   8  13
HETATM   13  C   UNK N   1     137.110 144.135 154.037  0.00  0.00     0.250 C 
HETATM   14  O   UNK N   1     138.176 144.685 153.805  0.00  0.00    -0.268 OA
HETATM   15  N   UNK N   1     136.317 144.635 155.021  0.00  0.00    -0.366 N 
HETATM   16  H   UNK N   1     135.413 144.221 155.268  0.00  0.00     0.159 HD
HETATM   17  H   UNK N   1     136.620 145.464 155.553  0.00  0.00     0.159 HD
ENDBRANCH   8  13
TORSDOF 1
ENDMDL
MODEL 9
REMARK VINA RESULT:      -5.5     61.359     63.468
REMARK  1 active torsions:
REMARK  status: ('A' for Active; 'I' for Inactive)
REMARK       I    between atoms: N_6  and  C_14 
REMARK    1  A    between atoms: C_10  and  C_14 
ROOT
HETATM    1  N   UNK N   1     134.627 166.169 177.480  0.00  0.00    -0.351 N 
ATOM      2  HN  UNK N   1     134.700 165.399 178.146  1.00  0.00     0.166 HD
HETATM    3  N   UNK N   1     136.152 167.378 178.788  0.00  0.00    -0.352 N 
ATOM      4  HN  UNK N   1     136.200 166.589 179.432  1.00  0.00     0.166 HD
HETATM    5  C   UNK N   1     135.263 168.370 176.792  0.00  0.00     0.009 A 
HETATM    6  C   UNK N   1     134.427 168.258 175.672  0.00  0.00     0.033 A 
HETATM    7  C   UNK N   1     135.348 167.294 177.697  0.00  0.00     0.115 A 
HETATM    8  C   UNK N   1     133.682 167.075 175.463  0.00  0.00     0.048 A 
HETATM    9  C   UNK N   1     136.021 169.524 177.040  0.00  0.00     0.016 A 
HETATM   10  C   UNK N   1     133.811 166.033 176.406  0.00  0.00     0.106 A 
HETATM   11  C   UNK N   1     136.840 169.581 178.172  0.00  0.00     0.018 A 
HETATM   12  C   UNK N   1     136.892 168.488 179.042  0.00  0.00     0.089 A 
ENDROOT
BRANCH   8  13
HETATM   13  C   UNK N   1     132.788 166.954 174.262  0.00  0.00     0.250 C 
HETATM   14  O   UNK N   1     131.807 166.228 174.321  0.00  0.00    -0.268 OA
HETATM   15  N   UNK N   1     133.035 167.625 173.107  0.00  0.00    -0.366 N 
HETATM   16  H   UNK N   1     133.841 168.247 172.988  0.00  0.00     0.159 HD
HETATM   17  H   UNK N   1     132.399 167.517 172.303  0.00  0.00     0.159 HD
ENDBRANCH   8  13
TORSDOF 1
ENDMDL
