MODEL 1
REMARK VINA RESULT:      -8.5      0.000      0.000
REMARK  3 active torsions:
REMARK  status: ('A' for Active; 'I' for Inactive)
REMARK    1  A    between atoms: O_3  and  C_18 
REMARK    2  A    between atoms: O_4  and  C_21 
REMARK    3  A    between atoms: C_20  and  C_22 
ROOT
HETATM    1  O   UNK N   1     153.781 151.551 143.523  0.00  0.00    -0.310 OA
HETATM    2  O   UNK N   1     154.692 149.531 143.133  0.00  0.00    -0.264 OA
HETATM    3  C   UNK N   1     151.244 150.188 143.276  0.00  0.00     0.019 C 
HETATM    4  C   UNK N   1     152.458 149.568 144.086  0.00  0.00     0.083 C 
HETATM    5  C   UNK N   1     150.808 149.362 142.025  0.00  0.00    -0.043 C 
HETATM    6  C   UNK N   1     151.465 151.740 143.085  0.00  0.00     0.044 C 
HETATM    7  C   UNK N   1     152.501 148.011 143.983  0.00  0.00     0.025 C 
HETATM    8  C   UNK N   1     150.468 147.889 142.481  0.00  0.00     0.009 C 
HETATM    9  C   UNK N   1     152.645 152.207 143.991  0.00  0.00     0.166 C 
HETATM   10  C   UNK N   1     152.307 150.260 145.485  0.00  0.00     0.006 A 
HETATM   11  C   UNK N   1     151.082 147.458 143.839  0.00  0.00     0.002 C 
HETATM   12  C   UNK N   1     152.406 151.672 145.393  0.00  0.00    -0.018 A 
HETATM   13  C   UNK N   1     153.743 150.189 143.532  0.00  0.00     0.273 C 
HETATM   14  C   UNK N   1     151.919 149.341 140.941  0.00  0.00     0.015 C 
HETATM   15  C   UNK N   1     149.546 149.975 141.380  0.00  0.00     0.015 C 
HETATM   16  C   UNK N   1     152.082 149.688 146.776  0.00  0.00     0.107 A 
HETATM   17  C   UNK N   1     152.332 152.490 146.516  0.00  0.00     0.021 A 
HETATM   18  C   UNK N   1     152.139 151.934 147.793  0.00  0.00    -0.018 A 
HETATM   19  C   UNK N   1     152.000 150.518 147.910  0.00  0.00     0.106 A 
ENDROOT
BRANCH  18  20
HETATM   20  C   UNK N   1     152.081 152.868 149.007  0.00  0.00     0.013 C 
HETATM   21  C   UNK N   1     150.827 153.746 148.955  0.00  0.00     0.015 C 
HETATM   22  C   UNK N   1     153.354 153.719 149.121  0.00  0.00     0.015 C 
ENDBRANCH  18  20
BRANCH  19  23
HETATM   23  O   UNK N   1     151.765 149.905 149.095  0.00  0.00    -0.357 OA
HETATM   24  H   UNK N   1     151.531 148.982 149.227  0.00  0.00     0.218 HD
ENDBRANCH  19  23
BRANCH  16  25
HETATM   25  O   UNK N   1     151.911 148.366 147.004  0.00  0.00    -0.357 OA
HETATM   26  H   UNK N   1     152.181 147.639 146.450  0.00  0.00     0.218 HD
ENDBRANCH  16  25
TORSDOF 3
ENDMDL
MODEL 2
REMARK VINA RESULT:      -7.3     18.940     21.247
REMARK  3 active torsions:
REMARK  status: ('A' for Active; 'I' for Inactive)
REMARK    1  A    between atoms: O_3  and  C_18 
REMARK    2  A    between atoms: O_4  and  C_21 
REMARK    3  A    between atoms: C_20  and  C_22 
ROOT
HETATM    1  O   UNK N   1     135.698 138.947 153.822  0.00  0.00    -0.310 OA
HETATM    2  O   UNK N   1     137.802 139.575 154.312  0.00  0.00    -0.264 OA
HETATM    3  C   UNK N   1     135.224 141.758 153.341  0.00  0.00     0.019 C 
HETATM    4  C   UNK N   1     136.535 141.024 152.829  0.00  0.00     0.083 C 
HETATM    5  C   UNK N   1     135.480 142.884 154.392  0.00  0.00    -0.043 C 
HETATM    6  C   UNK N   1     134.108 140.691 153.671  0.00  0.00     0.044 C 
HETATM    7  C   UNK N   1     137.781 141.963 152.850  0.00  0.00     0.025 C 
HETATM    8  C   UNK N   1     136.491 143.931 153.780  0.00  0.00     0.009 C 
HETATM    9  C   UNK N   1     134.547 139.299 153.121  0.00  0.00     0.166 C 
HETATM   10  C   UNK N   1     136.049 140.390 151.480  0.00  0.00     0.006 A 
HETATM   11  C   UNK N   1     137.350 143.409 152.599  0.00  0.00     0.002 C 
HETATM   12  C   UNK N   1     134.981 139.478 151.676  0.00  0.00    -0.018 A 
HETATM   13  C   UNK N   1     136.754 139.802 153.725  0.00  0.00     0.273 C 
HETATM   14  C   UNK N   1     136.045 142.308 155.718  0.00  0.00     0.015 C 
HETATM   15  C   UNK N   1     134.165 143.619 154.732  0.00  0.00     0.015 C 
HETATM   16  C   UNK N   1     136.508 140.606 150.143  0.00  0.00     0.107 A 
HETATM   17  C   UNK N   1     134.412 138.772 150.619  0.00  0.00     0.021 A 
HETATM   18  C   UNK N   1     134.877 138.957 149.305  0.00  0.00    -0.018 A 
HETATM   19  C   UNK N   1     135.927 139.897 149.075  0.00  0.00     0.106 A 
ENDROOT
BRANCH  18  20
HETATM   20  C   UNK N   1     134.235 138.149 148.172  0.00  0.00     0.013 C 
HETATM   21  C   UNK N   1     132.715 138.086 148.345  0.00  0.00     0.015 C 
HETATM   22  C   UNK N   1     134.845 136.744 148.072  0.00  0.00     0.015 C 
ENDBRANCH  18  20
BRANCH  19  23
HETATM   23  O   UNK N   1     136.401 140.170 147.836  0.00  0.00    -0.357 OA
HETATM   24  H   UNK N   1     136.391 139.582 147.075  0.00  0.00     0.218 HD
ENDBRANCH  19  23
BRANCH  16  25
HETATM   25  O   UNK N   1     137.477 141.485 149.804  0.00  0.00    -0.357 OA
HETATM   26  H   UNK N   1     137.409 142.228 149.211  0.00  0.00     0.218 HD
ENDBRANCH  16  25
TORSDOF 3
ENDMDL
MODEL 3
REMARK VINA RESULT:      -6.8      7.702     11.371
REMARK  3 active torsions:
REMARK  status: ('A' for Active; 'I' for Inactive)
REMARK    1  A    between atoms: O_3  and  C_18 
REMARK    2  A    between atoms: O_4  and  C_21 
REMARK    3  A    between atoms: C_20  and  C_22 
ROOT
HETATM    1  O   UNK N   1     151.311 158.743 150.623  0.00  0.00    -0.310 OA
HETATM    2  O   UNK N   1     150.876 160.436 152.038  0.00  0.00    -0.264 OA
HETATM    3  C   UNK N   1     152.559 157.474 152.901  0.00  0.00     0.019 C 
HETATM    4  C   UNK N   1     151.169 158.231 153.014  0.00  0.00     0.083 C 
HETATM    5  C   UNK N   1     153.714 158.111 153.737  0.00  0.00    -0.043 C 
HETATM    6  C   UNK N   1     152.857 157.127 151.389  0.00  0.00     0.044 C 
HETATM    7  C   UNK N   1     150.991 158.932 154.397  0.00  0.00     0.025 C 
HETATM    8  C   UNK N   1     153.259 158.200 155.246  0.00  0.00     0.009 C 
HETATM    9  C   UNK N   1     151.574 157.377 150.540  0.00  0.00     0.166 C 
HETATM   10  C   UNK N   1     150.156 157.124 152.556  0.00  0.00     0.006 A 
HETATM   11  C   UNK N   1     151.727 158.143 155.481  0.00  0.00     0.002 C 
HETATM   12  C   UNK N   1     150.408 156.689 151.230  0.00  0.00    -0.018 A 
HETATM   13  C   UNK N   1     151.107 159.248 151.871  0.00  0.00     0.273 C 
HETATM   14  C   UNK N   1     154.089 159.521 153.208  0.00  0.00     0.015 C 
HETATM   15  C   UNK N   1     154.984 157.236 153.663  0.00  0.00     0.015 C 
HETATM   16  C   UNK N   1     149.072 156.518 153.265  0.00  0.00     0.107 A 
HETATM   17  C   UNK N   1     149.613 155.733 150.605  0.00  0.00     0.021 A 
HETATM   18  C   UNK N   1     148.528 155.152 151.286  0.00  0.00    -0.018 A 
HETATM   19  C   UNK N   1     148.273 155.546 152.634  0.00  0.00     0.106 A 
ENDROOT
BRANCH  18  20
HETATM   20  C   UNK N   1     147.665 154.116 150.556  0.00  0.00     0.013 C 
HETATM   21  C   UNK N   1     148.435 153.497 149.386  0.00  0.00     0.015 C 
HETATM   22  C   UNK N   1     146.334 154.723 150.091  0.00  0.00     0.015 C 
ENDBRANCH  18  20
BRANCH  19  23
HETATM   23  O   UNK N   1     147.279 155.003 153.376  0.00  0.00    -0.357 OA
HETATM   24  H   UNK N   1     146.871 155.386 154.158  0.00  0.00     0.218 HD
ENDBRANCH  19  23
BRANCH  16  25
HETATM   25  O   UNK N   1     148.754 156.795 154.549  0.00  0.00    -0.357 OA
HETATM   26  H   UNK N   1     149.230 157.347 155.163  0.00  0.00     0.218 HD
ENDBRANCH  16  25
TORSDOF 3
ENDMDL
MODEL 4
REMARK VINA RESULT:      -6.7      8.388     11.621
REMARK  3 active torsions:
REMARK  status: ('A' for Active; 'I' for Inactive)
REMARK    1  A    between atoms: O_3  and  C_18 
REMARK    2  A    between atoms: O_4  and  C_21 
REMARK    3  A    between atoms: C_20  and  C_22 
ROOT
HETATM    1  O   UNK N   1     153.728 158.693 152.650  0.00  0.00    -0.310 OA
HETATM    2  O   UNK N   1     153.680 156.729 153.747  0.00  0.00    -0.264 OA
HETATM    3  C   UNK N   1     151.476 157.648 151.170  0.00  0.00     0.019 C 
HETATM    4  C   UNK N   1     151.601 157.482 152.742  0.00  0.00     0.083 C 
HETATM    5  C   UNK N   1     151.495 156.306 150.372  0.00  0.00    -0.043 C 
HETATM    6  C   UNK N   1     152.432 158.804 150.676  0.00  0.00     0.044 C 
HETATM    7  C   UNK N   1     150.992 156.135 153.243  0.00  0.00     0.025 C 
HETATM    8  C   UNK N   1     150.345 155.373 150.918  0.00  0.00     0.009 C 
HETATM    9  C   UNK N   1     152.965 159.594 151.910  0.00  0.00     0.166 C 
HETATM   10  C   UNK N   1     151.028 158.847 153.262  0.00  0.00     0.006 A 
HETATM   11  C   UNK N   1     149.830 155.720 152.339  0.00  0.00     0.002 C 
HETATM   12  C   UNK N   1     151.780 159.953 152.791  0.00  0.00    -0.018 A 
HETATM   13  C   UNK N   1     153.088 157.576 153.096  0.00  0.00     0.273 C 
HETATM   14  C   UNK N   1     152.867 155.590 150.495  0.00  0.00     0.015 C 
HETATM   15  C   UNK N   1     151.242 156.562 148.870  0.00  0.00     0.015 C 
HETATM   16  C   UNK N   1     149.898 159.112 154.096  0.00  0.00     0.107 A 
HETATM   17  C   UNK N   1     151.471 161.261 153.152  0.00  0.00     0.021 A 
HETATM   18  C   UNK N   1     150.378 161.529 153.996  0.00  0.00    -0.018 A 
HETATM   19  C   UNK N   1     149.583 160.436 154.455  0.00  0.00     0.106 A 
ENDROOT
BRANCH  18  20
HETATM   20  C   UNK N   1     150.081 162.982 154.384  0.00  0.00     0.013 C 
HETATM   21  C   UNK N   1     150.768 163.951 153.418  0.00  0.00     0.015 C 
HETATM   22  C   UNK N   1     150.481 163.266 155.839  0.00  0.00     0.015 C 
ENDBRANCH  18  20
BRANCH  19  23
HETATM   23  O   UNK N   1     148.486 160.610 155.231  0.00  0.00    -0.357 OA
HETATM   24  H   UNK N   1     147.580 160.718 154.928  0.00  0.00     0.218 HD
ENDBRANCH  19  23
BRANCH  16  25
HETATM   25  O   UNK N   1     149.061 158.162 154.570  0.00  0.00    -0.357 OA
HETATM   26  H   UNK N   1     148.178 157.962 154.273  0.00  0.00     0.218 HD
ENDBRANCH  16  25
TORSDOF 3
ENDMDL
MODEL 5
REMARK VINA RESULT:      -6.6     10.373     13.406
REMARK  3 active torsions:
REMARK  status: ('A' for Active; 'I' for Inactive)
REMARK    1  A    between atoms: O_3  and  C_18 
REMARK    2  A    between atoms: O_4  and  C_21 
REMARK    3  A    between atoms: C_20  and  C_22 
ROOT
HETATM    1  O   UNK N   1     153.050 159.233 152.782  0.00  0.00    -0.310 OA
HETATM    2  O   UNK N   1     154.102 158.009 154.349  0.00  0.00    -0.264 OA
HETATM    3  C   UNK N   1     150.670 157.825 153.623  0.00  0.00     0.019 C 
HETATM    4  C   UNK N   1     151.724 158.392 154.663  0.00  0.00     0.083 C 
HETATM    5  C   UNK N   1     150.524 156.269 153.629  0.00  0.00    -0.043 C 
HETATM    6  C   UNK N   1     150.861 158.534 152.225  0.00  0.00     0.044 C 
HETATM    7  C   UNK N   1     151.850 157.487 155.928  0.00  0.00     0.025 C 
HETATM    8  C   UNK N   1     150.161 155.799 155.091  0.00  0.00     0.009 C 
HETATM    9  C   UNK N   1     151.818 159.754 152.393  0.00  0.00     0.166 C 
HETATM   10  C   UNK N   1     151.271 159.887 154.806  0.00  0.00     0.006 A 
HETATM   11  C   UNK N   1     150.512 156.805 156.217  0.00  0.00     0.002 C 
HETATM   12  C   UNK N   1     151.329 160.580 153.570  0.00  0.00    -0.018 A 
HETATM   13  C   UNK N   1     153.067 158.508 153.936  0.00  0.00     0.273 C 
HETATM   14  C   UNK N   1     151.828 155.574 153.152  0.00  0.00     0.015 C 
HETATM   15  C   UNK N   1     149.391 155.826 152.679  0.00  0.00     0.015 C 
HETATM   16  C   UNK N   1     150.819 160.605 155.957  0.00  0.00     0.107 A 
HETATM   17  C   UNK N   1     151.000 161.929 153.467  0.00  0.00     0.021 A 
HETATM   18  C   UNK N   1     150.582 162.651 154.600  0.00  0.00    -0.018 A 
HETATM   19  C   UNK N   1     150.480 161.967 155.849  0.00  0.00     0.106 A 
ENDROOT
BRANCH  18  20
HETATM   20  C   UNK N   1     150.246 164.138 154.447  0.00  0.00     0.013 C 
HETATM   21  C   UNK N   1     148.732 164.345 154.353  0.00  0.00     0.015 C 
HETATM   22  C   UNK N   1     150.970 164.755 153.242  0.00  0.00     0.015 C 
ENDBRANCH  18  20
BRANCH  19  23
HETATM   23  O   UNK N   1     150.041 162.575 156.977  0.00  0.00    -0.357 OA
HETATM   24  H   UNK N   1     149.665 163.457 157.045  0.00  0.00     0.218 HD
ENDBRANCH  19  23
BRANCH  16  25
HETATM   25  O   UNK N   1     150.661 160.057 157.182  0.00  0.00    -0.357 OA
HETATM   26  H   UNK N   1     151.148 160.256 157.977  0.00  0.00     0.218 HD
ENDBRANCH  16  25
TORSDOF 3
ENDMDL
MODEL 6
REMARK VINA RESULT:      -6.5     19.730     22.421
REMARK  3 active torsions:
REMARK  status: ('A' for Active; 'I' for Inactive)
REMARK    1  A    between atoms: O_3  and  C_18 
REMARK    2  A    between atoms: O_4  and  C_21 
REMARK    3  A    between atoms: C_20  and  C_22 
ROOT
HETATM    1  O   UNK N   1     141.580 133.863 138.966  0.00  0.00    -0.310 OA
HETATM    2  O   UNK N   1     139.973 132.303 139.177  0.00  0.00    -0.264 OA
HETATM    3  C   UNK N   1     143.179 131.723 137.860  0.00  0.00     0.019 C 
HETATM    4  C   UNK N   1     141.656 131.928 137.465  0.00  0.00     0.083 C 
HETATM    5  C   UNK N   1     143.483 130.381 138.599  0.00  0.00    -0.043 C 
HETATM    6  C   UNK N   1     143.750 133.051 138.494  0.00  0.00     0.044 C 
HETATM    7  C   UNK N   1     140.930 130.573 137.195  0.00  0.00     0.025 C 
HETATM    8  C   UNK N   1     142.982 129.182 137.703  0.00  0.00     0.009 C 
HETATM    9  C   UNK N   1     142.733 134.211 138.265  0.00  0.00     0.166 C 
HETATM   10  C   UNK N   1     141.753 133.008 136.333  0.00  0.00     0.006 A 
HETATM   11  C   UNK N   1     141.922 129.553 136.633  0.00  0.00     0.002 C 
HETATM   12  C   UNK N   1     142.341 134.213 136.797  0.00  0.00    -0.018 A 
HETATM   13  C   UNK N   1     140.985 132.690 138.612  0.00  0.00     0.273 C 
HETATM   14  C   UNK N   1     142.797 130.330 139.991  0.00  0.00     0.015 C 
HETATM   15  C   UNK N   1     145.001 130.218 138.827  0.00  0.00     0.015 C 
HETATM   16  C   UNK N   1     141.360 132.941 134.960  0.00  0.00     0.107 A 
HETATM   17  C   UNK N   1     142.499 135.321 135.970  0.00  0.00     0.021 A 
HETATM   18  C   UNK N   1     142.088 135.274 134.626  0.00  0.00    -0.018 A 
HETATM   19  C   UNK N   1     141.527 134.061 134.124  0.00  0.00     0.106 A 
ENDROOT
BRANCH  18  20
HETATM   20  C   UNK N   1     142.264 136.521 133.753  0.00  0.00     0.013 C 
HETATM   21  C   UNK N   1     143.602 137.204 134.049  0.00  0.00     0.015 C 
HETATM   22  C   UNK N   1     141.090 137.495 133.925  0.00  0.00     0.015 C 
ENDBRANCH  18  20
BRANCH  19  23
HETATM   23  O   UNK N   1     141.150 133.915 132.831  0.00  0.00    -0.357 OA
HETATM   24  H   UNK N   1     141.627 133.440 132.144  0.00  0.00     0.218 HD
ENDBRANCH  19  23
BRANCH  16  25
HETATM   25  O   UNK N   1     140.841 131.841 134.370  0.00  0.00    -0.357 OA
HETATM   26  H   UNK N   1     140.750 131.668 133.437  0.00  0.00     0.218 HD
ENDBRANCH  16  25
TORSDOF 3
ENDMDL
MODEL 7
REMARK VINA RESULT:      -6.5     42.923     45.396
REMARK  3 active torsions:
REMARK  status: ('A' for Active; 'I' for Inactive)
REMARK    1  A    between atoms: O_3  and  C_18 
REMARK    2  A    between atoms: O_4  and  C_21 
REMARK    3  A    between atoms: C_20  and  C_22 
ROOT
HETATM    1  O   UNK N   1     154.464 139.046 189.647  0.00  0.00    -0.310 OA
HETATM    2  O   UNK N   1     155.208 139.103 187.525  0.00  0.00    -0.264 OA
HETATM    3  C   UNK N   1     154.854 141.910 189.610  0.00  0.00     0.019 C 
HETATM    4  C   UNK N   1     154.195 141.133 188.394  0.00  0.00     0.083 C 
HETATM    5  C   UNK N   1     156.211 142.607 189.275  0.00  0.00    -0.043 C 
HETATM    6  C   UNK N   1     154.794 141.017 190.911  0.00  0.00     0.044 C 
HETATM    7  C   UNK N   1     154.555 141.778 187.019  0.00  0.00     0.025 C 
HETATM    8  C   UNK N   1     155.994 143.584 188.054  0.00  0.00     0.009 C 
HETATM    9  C   UNK N   1     153.859 139.796 190.654  0.00  0.00     0.166 C 
HETATM   10  C   UNK N   1     152.697 141.028 188.846  0.00  0.00     0.006 A 
HETATM   11  C   UNK N   1     154.745 143.287 187.183  0.00  0.00     0.002 C 
HETATM   12  C   UNK N   1     152.559 140.311 190.062  0.00  0.00    -0.018 A 
HETATM   13  C   UNK N   1     154.678 139.682 188.462  0.00  0.00     0.273 C 
HETATM   14  C   UNK N   1     157.317 141.571 188.940  0.00  0.00     0.015 C 
HETATM   15  C   UNK N   1     156.707 143.437 190.480  0.00  0.00     0.015 C 
HETATM   16  C   UNK N   1     151.512 141.542 188.233  0.00  0.00     0.107 A 
HETATM   17  C   UNK N   1     151.314 140.068 190.635  0.00  0.00     0.021 A 
HETATM   18  C   UNK N   1     150.141 140.546 190.024  0.00  0.00    -0.018 A 
HETATM   19  C   UNK N   1     150.255 141.301 188.819  0.00  0.00     0.106 A 
ENDROOT
BRANCH  18  20
HETATM   20  C   UNK N   1     148.788 140.242 190.679  0.00  0.00     0.013 C 
HETATM   21  C   UNK N   1     148.718 140.848 192.083  0.00  0.00     0.015 C 
HETATM   22  C   UNK N   1     148.506 138.733 190.706  0.00  0.00     0.015 C 
ENDBRANCH  18  20
BRANCH  19  23
HETATM   23  O   UNK N   1     149.180 141.837 188.191  0.00  0.00    -0.357 OA
HETATM   24  H   UNK N   1     148.265 141.559 188.282  0.00  0.00     0.218 HD
ENDBRANCH  19  23
BRANCH  16  25
HETATM   25  O   UNK N   1     151.501 142.289 187.107  0.00  0.00    -0.357 OA
HETATM   26  H   UNK N   1     152.103 142.986 186.862  0.00  0.00     0.218 HD
ENDBRANCH  16  25
TORSDOF 3
ENDMDL
MODEL 8
REMARK VINA RESULT:      -6.5     41.546     44.457
REMARK  3 active torsions:
REMARK  status: ('A' for Active; 'I' for Inactive)
REMARK    1  A    between atoms: O_3  and  C_18 
REMARK    2  A    between atoms: O_4  and  C_21 
REMARK    3  A    between atoms: C_20  and  C_22 
ROOT
HETATM    1  O   UNK N   1     144.624 164.942 188.313  0.00  0.00    -0.310 OA
HETATM    2  O   UNK N   1     146.394 165.557 187.069  0.00  0.00    -0.264 OA
HETATM    3  C   UNK N   1     143.419 164.190 185.795  0.00  0.00     0.019 C 
HETATM    4  C   UNK N   1     144.931 163.856 186.138  0.00  0.00     0.083 C 
HETATM    5  C   UNK N   1     143.226 165.163 184.588  0.00  0.00    -0.043 C 
HETATM    6  C   UNK N   1     142.627 164.511 187.123  0.00  0.00     0.044 C 
HETATM    7  C   UNK N   1     145.846 163.906 184.875  0.00  0.00     0.025 C 
HETATM    8  C   UNK N   1     143.954 164.556 183.326  0.00  0.00     0.009 C 
HETATM    9  C   UNK N   1     143.502 164.117 188.352  0.00  0.00     0.166 C 
HETATM   10  C   UNK N   1     144.794 162.527 186.959  0.00  0.00     0.006 A 
HETATM   11  C   UNK N   1     145.048 163.501 183.636  0.00  0.00     0.002 C 
HETATM   12  C   UNK N   1     144.018 162.705 188.133  0.00  0.00    -0.018 A 
HETATM   13  C   UNK N   1     145.395 164.866 187.192  0.00  0.00     0.273 C 
HETATM   14  C   UNK N   1     143.788 166.576 184.900  0.00  0.00     0.015 C 
HETATM   15  C   UNK N   1     141.728 165.326 184.254  0.00  0.00     0.015 C 
HETATM   16  C   UNK N   1     145.312 161.222 186.691  0.00  0.00     0.107 A 
HETATM   17  C   UNK N   1     143.791 161.666 189.030  0.00  0.00     0.021 A 
HETATM   18  C   UNK N   1     144.321 160.385 188.788  0.00  0.00    -0.018 A 
HETATM   19  C   UNK N   1     145.076 160.170 187.596  0.00  0.00     0.106 A 
ENDROOT
BRANCH  18  20
HETATM   20  C   UNK N   1     144.063 159.272 189.809  0.00  0.00     0.013 C 
HETATM   21  C   UNK N   1     142.806 158.479 189.440  0.00  0.00     0.015 C 
HETATM   22  C   UNK N   1     143.971 159.831 191.236  0.00  0.00     0.015 C 
ENDBRANCH  18  20
BRANCH  19  23
HETATM   23  O   UNK N   1     145.581 158.958 187.263  0.00  0.00    -0.357 OA
HETATM   24  H   UNK N   1     145.787 158.646 186.377  0.00  0.00     0.218 HD
ENDBRANCH  19  23
BRANCH  16  25
HETATM   25  O   UNK N   1     146.019 160.896 185.585  0.00  0.00    -0.357 OA
HETATM   26  H   UNK N   1     146.533 161.475 185.030  0.00  0.00     0.218 HD
ENDBRANCH  16  25
TORSDOF 3
ENDMDL
MODEL 9
REMARK VINA RESULT:      -6.5     20.362     22.449
REMARK  3 active torsions:
REMARK  status: ('A' for Active; 'I' for Inactive)
REMARK    1  A    between atoms: O_3  and  C_18 
REMARK    2  A    between atoms: O_4  and  C_21 
REMARK    3  A    between atoms: C_20  and  C_22 
ROOT
HETATM    1  O   UNK N   1     168.782 158.265 133.060  0.00  0.00    -0.310 OA
HETATM    2  O   UNK N   1     167.132 156.912 133.774  0.00  0.00    -0.264 OA
HETATM    3  C   UNK N   1     167.698 157.797 130.421  0.00  0.00     0.019 C 
HETATM    4  C   UNK N   1     166.769 158.080 131.676  0.00  0.00     0.083 C 
HETATM    5  C   UNK N   1     167.514 156.382 129.785  0.00  0.00    -0.043 C 
HETATM    6  C   UNK N   1     169.171 158.274 130.728  0.00  0.00     0.044 C 
HETATM    7  C   UNK N   1     165.418 157.303 131.596  0.00  0.00     0.025 C 
HETATM    8  C   UNK N   1     165.996 156.192 129.398  0.00  0.00     0.009 C 
HETATM    9  C   UNK N   1     169.176 159.123 132.035  0.00  0.00     0.166 C 
HETATM   10  C   UNK N   1     166.773 159.647 131.739  0.00  0.00     0.006 A 
HETATM   11  C   UNK N   1     165.002 157.127 130.135  0.00  0.00     0.002 C 
HETATM   12  C   UNK N   1     168.079 160.168 131.925  0.00  0.00    -0.018 A 
HETATM   13  C   UNK N   1     167.557 157.683 132.927  0.00  0.00     0.273 C 
HETATM   14  C   UNK N   1     167.963 155.258 130.757  0.00  0.00     0.015 C 
HETATM   15  C   UNK N   1     168.364 156.249 128.502  0.00  0.00     0.015 C 
HETATM   16  C   UNK N   1     165.692 160.576 131.627  0.00  0.00     0.107 A 
HETATM   17  C   UNK N   1     168.317 161.534 132.042  0.00  0.00     0.021 A 
HETATM   18  C   UNK N   1     167.255 162.453 131.961  0.00  0.00    -0.018 A 
HETATM   19  C   UNK N   1     165.936 161.958 131.738  0.00  0.00     0.106 A 
ENDROOT
BRANCH  18  20
HETATM   20  C   UNK N   1     167.557 163.948 132.112  0.00  0.00     0.013 C 
HETATM   21  C   UNK N   1     168.989 164.259 131.665  0.00  0.00     0.015 C 
HETATM   22  C   UNK N   1     167.303 164.430 133.547  0.00  0.00     0.015 C 
ENDBRANCH  18  20
BRANCH  19  23
HETATM   23  O   UNK N   1     164.864 162.776 131.601  0.00  0.00    -0.357 OA
HETATM   24  H   UNK N   1     164.785 163.520 130.997  0.00  0.00     0.218 HD
ENDBRANCH  19  23
BRANCH  16  25
HETATM   25  O   UNK N   1     164.408 160.224 131.392  0.00  0.00    -0.357 OA
HETATM   26  H   UNK N   1     163.757 160.699 130.883  0.00  0.00     0.218 HD
ENDBRANCH  16  25
TORSDOF 3
ENDMDL
