MODEL 1
REMARK VINA RESULT:      -7.4      0.000      0.000
REMARK  5 active torsions:
REMARK  status: ('A' for Active; 'I' for Inactive)
REMARK    1  A    between atoms: O_1  and  C_17 
REMARK    2  A    between atoms: O_3  and  C_18 
REMARK    3  A    between atoms: O_4  and  C_21 
REMARK    4  A    between atoms: C_6  and  C_17 
REMARK    5  A    between atoms: C_20  and  C_22 
ROOT
HETATM    1  C   UNK N   1     150.776 157.258 151.773  0.00  0.00     0.017 C 
HETATM    2  C   UNK N   1     152.048 156.468 151.305  0.00  0.00     0.080 C 
HETATM    3  C   UNK N   1     151.089 158.334 152.906  0.00  0.00    -0.043 C 
HETATM    4  C   UNK N   1     153.003 157.556 150.653  0.00  0.00     0.026 C 
HETATM    5  C   UNK N   1     152.531 158.923 152.733  0.00  0.00     0.009 C 
HETATM    6  C   UNK N   1     149.597 156.332 152.082  0.00  0.00     0.011 C 
HETATM    7  C   UNK N   1     152.915 158.984 151.259  0.00  0.00     0.002 C 
HETATM    8  C   UNK N   1     151.704 155.356 150.285  0.00  0.00     0.004 A 
HETATM    9  C   UNK N   1     149.198 155.550 150.831  0.00  0.00     0.040 C 
HETATM   10  C   UNK N   1     150.052 159.481 152.780  0.00  0.00     0.015 C 
HETATM   11  C   UNK N   1     150.981 157.778 154.348  0.00  0.00     0.015 C 
HETATM   12  C   UNK N   1     150.359 154.951 150.071  0.00  0.00    -0.047 A 
HETATM   13  C   UNK N   1     152.731 154.698 149.561  0.00  0.00     0.107 A 
HETATM   14  C   UNK N   1     150.070 153.958 149.126  0.00  0.00     0.018 A 
HETATM   15  C   UNK N   1     151.080 153.314 148.392  0.00  0.00    -0.018 A 
HETATM   16  C   UNK N   1     152.434 153.684 148.629  0.00  0.00     0.106 A 
ENDROOT
BRANCH   2  17
HETATM   17  C   UNK N   1     152.723 155.729 152.468  0.00  0.00     0.154 C 
HETATM   18  O   UNK N   1     153.898 155.925 152.744  0.00  0.00    -0.649 OA
BRANCH  17  19
HETATM   19  O   UNK N   1     152.033 154.797 153.161  0.00  0.00    -0.775 OA
HETATM   20  H   UNK N   1     152.408 154.367 153.943  0.00  0.00     0.167 HD
ENDBRANCH  17  19
ENDBRANCH   2  17
BRANCH  13  21
HETATM   21  O   UNK N   1     154.023 155.046 149.767  0.00  0.00    -0.357 OA
HETATM   22  H   UNK N   1     154.672 155.120 149.055  0.00  0.00     0.218 HD
ENDBRANCH  13  21
BRANCH  16  23
HETATM   23  O   UNK N   1     153.473 153.085 148.001  0.00  0.00    -0.357 OA
HETATM   24  H   UNK N   1     154.233 152.673 148.423  0.00  0.00     0.218 HD
ENDBRANCH  16  23
BRANCH  15  25
HETATM   25  C   UNK N   1     150.686 152.233 147.380  0.00  0.00     0.013 C 
HETATM   26  C   UNK N   1     150.563 152.810 145.961  0.00  0.00     0.015 C 
HETATM   27  C   UNK N   1     149.387 151.539 147.806  0.00  0.00     0.015 C 
ENDBRANCH  15  25
TORSDOF 5
ENDMDL
MODEL 2
REMARK VINA RESULT:      -6.8     30.631     33.762
REMARK  5 active torsions:
REMARK  status: ('A' for Active; 'I' for Inactive)
REMARK    1  A    between atoms: O_1  and  C_17 
REMARK    2  A    between atoms: O_3  and  C_18 
REMARK    3  A    between atoms: O_4  and  C_21 
REMARK    4  A    between atoms: C_6  and  C_17 
REMARK    5  A    between atoms: C_20  and  C_22 
ROOT
HETATM    1  C   UNK N   1     158.417 121.012 153.411  0.00  0.00     0.017 C 
HETATM    2  C   UNK N   1     157.812 122.453 153.540  0.00  0.00     0.080 C 
HETATM    3  C   UNK N   1     157.464 119.878 153.996  0.00  0.00    -0.043 C 
HETATM    4  C   UNK N   1     156.505 122.444 152.639  0.00  0.00     0.026 C 
HETATM    5  C   UNK N   1     155.956 120.267 153.813  0.00  0.00     0.009 C 
HETATM    6  C   UNK N   1     159.866 120.942 153.902  0.00  0.00     0.011 C 
HETATM    7  C   UNK N   1     155.761 121.083 152.541  0.00  0.00     0.002 C 
HETATM    8  C   UNK N   1     158.799 123.547 153.065  0.00  0.00     0.004 A 
HETATM    9  C   UNK N   1     160.750 121.871 153.071  0.00  0.00     0.040 C 
HETATM   10  C   UNK N   1     157.747 118.564 153.222  0.00  0.00     0.015 C 
HETATM   11  C   UNK N   1     157.690 119.580 155.499  0.00  0.00     0.015 C 
HETATM   12  C   UNK N   1     160.169 123.248 152.840  0.00  0.00    -0.047 A 
HETATM   13  C   UNK N   1     158.359 124.882 152.872  0.00  0.00     0.107 A 
HETATM   14  C   UNK N   1     161.039 124.249 152.389  0.00  0.00     0.018 A 
HETATM   15  C   UNK N   1     160.606 125.569 152.178  0.00  0.00    -0.018 A 
HETATM   16  C   UNK N   1     159.245 125.888 152.439  0.00  0.00     0.106 A 
ENDROOT
BRANCH   2  17
HETATM   17  C   UNK N   1     157.506 122.817 154.999  0.00  0.00     0.154 C 
HETATM   18  O   UNK N   1     156.372 123.109 155.352  0.00  0.00    -0.649 OA
BRANCH  17  19
HETATM   19  O   UNK N   1     158.511 122.882 155.899  0.00  0.00    -0.775 OA
HETATM   20  H   UNK N   1     159.319 123.384 155.720  0.00  0.00     0.167 HD
ENDBRANCH  17  19
ENDBRANCH   2  17
BRANCH  13  21
HETATM   21  O   UNK N   1     157.064 125.199 153.106  0.00  0.00    -0.357 OA
HETATM   22  H   UNK N   1     156.644 125.107 153.971  0.00  0.00     0.218 HD
ENDBRANCH  13  21
BRANCH  16  23
HETATM   23  O   UNK N   1     158.752 127.143 152.307  0.00  0.00    -0.357 OA
HETATM   24  H   UNK N   1     159.267 127.950 152.222  0.00  0.00     0.218 HD
ENDBRANCH  16  23
BRANCH  15  25
HETATM   25  C   UNK N   1     161.619 126.611 151.688  0.00  0.00     0.013 C 
HETATM   26  C   UNK N   1     162.779 125.952 150.925  0.00  0.00     0.015 C 
HETATM   27  C   UNK N   1     162.137 127.454 152.859  0.00  0.00     0.015 C 
ENDBRANCH  15  25
TORSDOF 5
ENDMDL
MODEL 3
REMARK VINA RESULT:      -6.7     27.728     29.148
REMARK  5 active torsions:
REMARK  status: ('A' for Active; 'I' for Inactive)
REMARK    1  A    between atoms: O_1  and  C_17 
REMARK    2  A    between atoms: O_3  and  C_18 
REMARK    3  A    between atoms: O_4  and  C_21 
REMARK    4  A    between atoms: C_6  and  C_17 
REMARK    5  A    between atoms: C_20  and  C_22 
ROOT
HETATM    1  C   UNK N   1     153.867 132.923 167.683  0.00  0.00     0.017 C 
HETATM    2  C   UNK N   1     154.890 131.741 167.556  0.00  0.00     0.080 C 
HETATM    3  C   UNK N   1     152.430 132.456 168.189  0.00  0.00    -0.043 C 
HETATM    4  C   UNK N   1     155.081 131.188 169.032  0.00  0.00     0.026 C 
HETATM    5  C   UNK N   1     152.551 131.229 169.158  0.00  0.00     0.009 C 
HETATM    6  C   UNK N   1     153.845 133.812 166.437  0.00  0.00     0.011 C 
HETATM    7  C   UNK N   1     153.843 131.305 169.963  0.00  0.00     0.002 C 
HETATM    8  C   UNK N   1     156.244 132.201 166.962  0.00  0.00     0.004 A 
HETATM    9  C   UNK N   1     155.221 134.439 166.212  0.00  0.00     0.040 C 
HETATM   10  C   UNK N   1     151.777 133.641 168.947  0.00  0.00     0.015 C 
HETATM   11  C   UNK N   1     151.462 132.056 167.048  0.00  0.00     0.015 C 
HETATM   12  C   UNK N   1     156.378 133.475 166.348  0.00  0.00    -0.047 A 
HETATM   13  C   UNK N   1     157.374 131.344 166.994  0.00  0.00     0.107 A 
HETATM   14  C   UNK N   1     157.619 133.878 165.836  0.00  0.00     0.018 A 
HETATM   15  C   UNK N   1     158.747 133.042 165.881  0.00  0.00    -0.018 A 
HETATM   16  C   UNK N   1     158.613 131.748 166.458  0.00  0.00     0.106 A 
ENDROOT
BRANCH   2  17
HETATM   17  C   UNK N   1     154.394 130.656 166.591  0.00  0.00     0.154 C 
HETATM   18  O   UNK N   1     154.299 129.491 166.948  0.00  0.00    -0.649 OA
BRANCH  17  19
HETATM   19  O   UNK N   1     154.120 130.974 165.307  0.00  0.00    -0.775 OA
HETATM   20  H   UNK N   1     154.477 130.458 164.571  0.00  0.00     0.167 HD
ENDBRANCH  17  19
ENDBRANCH   2  17
BRANCH  13  21
HETATM   21  O   UNK N   1     157.266 130.115 167.548  0.00  0.00    -0.357 OA
HETATM   22  H   UNK N   1     156.439 129.614 167.570  0.00  0.00     0.218 HD
ENDBRANCH  13  21
BRANCH  16  23
HETATM   23  O   UNK N   1     159.635 130.860 166.501  0.00  0.00    -0.357 OA
HETATM   24  H   UNK N   1     159.863 130.291 167.240  0.00  0.00     0.218 HD
ENDBRANCH  16  23
BRANCH  15  25
HETATM   25  C   UNK N   1     160.069 133.551 165.296  0.00  0.00     0.013 C 
HETATM   26  C   UNK N   1     160.208 135.073 165.461  0.00  0.00     0.015 C 
HETATM   27  C   UNK N   1     160.204 133.143 163.825  0.00  0.00     0.015 C 
ENDBRANCH  15  25
TORSDOF 5
ENDMDL
MODEL 4
REMARK VINA RESULT:      -6.6      3.953      8.106
REMARK  5 active torsions:
REMARK  status: ('A' for Active; 'I' for Inactive)
REMARK    1  A    between atoms: O_1  and  C_17 
REMARK    2  A    between atoms: O_3  and  C_18 
REMARK    3  A    between atoms: O_4  and  C_21 
REMARK    4  A    between atoms: C_6  and  C_17 
REMARK    5  A    between atoms: C_20  and  C_22 
ROOT
HETATM    1  C   UNK N   1     151.789 157.236 153.740  0.00  0.00     0.017 C 
HETATM    2  C   UNK N   1     151.432 158.741 154.001  0.00  0.00     0.080 C 
HETATM    3  C   UNK N   1     152.353 156.972 152.274  0.00  0.00    -0.043 C 
HETATM    4  C   UNK N   1     152.807 159.526 153.891  0.00  0.00     0.026 C 
HETATM    5  C   UNK N   1     153.150 158.216 151.750  0.00  0.00     0.009 C 
HETATM    6  C   UNK N   1     150.668 156.287 154.172  0.00  0.00     0.011 C 
HETATM    7  C   UNK N   1     153.847 158.933 152.900  0.00  0.00     0.002 C 
HETATM    8  C   UNK N   1     150.787 158.956 155.392  0.00  0.00     0.004 A 
HETATM    9  C   UNK N   1     150.406 156.427 155.671  0.00  0.00     0.040 C 
HETATM   10  C   UNK N   1     153.304 155.748 152.337  0.00  0.00     0.015 C 
HETATM   11  C   UNK N   1     151.258 156.645 151.229  0.00  0.00     0.015 C 
HETATM   12  C   UNK N   1     150.324 157.855 156.162  0.00  0.00    -0.047 A 
HETATM   13  C   UNK N   1     150.617 160.264 155.914  0.00  0.00     0.107 A 
HETATM   14  C   UNK N   1     149.764 158.073 157.427  0.00  0.00     0.018 A 
HETATM   15  C   UNK N   1     149.609 159.364 157.959  0.00  0.00    -0.018 A 
HETATM   16  C   UNK N   1     150.032 160.476 157.178  0.00  0.00     0.106 A 
ENDROOT
BRANCH   2  17
HETATM   17  C   UNK N   1     150.386 159.262 153.006  0.00  0.00     0.154 C 
HETATM   18  O   UNK N   1     150.620 160.228 152.294  0.00  0.00    -0.649 OA
BRANCH  17  19
HETATM   19  O   UNK N   1     149.163 158.689 152.957  0.00  0.00    -0.775 OA
HETATM   20  H   UNK N   1     148.419 159.124 152.516  0.00  0.00     0.167 HD
ENDBRANCH  17  19
ENDBRANCH   2  17
BRANCH  13  21
HETATM   21  O   UNK N   1     151.024 161.332 155.188  0.00  0.00    -0.357 OA
HETATM   22  H   UNK N   1     151.931 161.445 154.874  0.00  0.00     0.218 HD
ENDBRANCH  13  21
BRANCH  16  23
HETATM   23  O   UNK N   1     149.879 161.757 157.592  0.00  0.00    -0.357 OA
HETATM   24  H   UNK N   1     149.819 162.057 158.503  0.00  0.00     0.218 HD
ENDBRANCH  16  23
BRANCH  15  25
HETATM   25  C   UNK N   1     148.982 159.523 159.348  0.00  0.00     0.013 C 
HETATM   26  C   UNK N   1     149.282 158.309 160.242  0.00  0.00     0.015 C 
HETATM   27  C   UNK N   1     147.472 159.765 159.237  0.00  0.00     0.015 C 
ENDBRANCH  15  25
TORSDOF 5
ENDMDL
MODEL 5
REMARK VINA RESULT:      -6.4     38.583     41.995
REMARK  5 active torsions:
REMARK  status: ('A' for Active; 'I' for Inactive)
REMARK    1  A    between atoms: O_1  and  C_17 
REMARK    2  A    between atoms: O_3  and  C_18 
REMARK    3  A    between atoms: O_4  and  C_21 
REMARK    4  A    between atoms: C_6  and  C_17 
REMARK    5  A    between atoms: C_20  and  C_22 
ROOT
HETATM    1  C   UNK N   1     167.633 154.585 186.931  0.00  0.00     0.017 C 
HETATM    2  C   UNK N   1     167.129 154.691 188.413  0.00  0.00     0.080 C 
HETATM    3  C   UNK N   1     167.194 153.231 186.216  0.00  0.00    -0.043 C 
HETATM    4  C   UNK N   1     165.544 154.716 188.318  0.00  0.00     0.026 C 
HETATM    5  C   UNK N   1     165.808 152.737 186.759  0.00  0.00     0.009 C 
HETATM    6  C   UNK N   1     169.120 154.924 186.795  0.00  0.00     0.011 C 
HETATM    7  C   UNK N   1     164.925 153.920 187.137  0.00  0.00     0.002 C 
HETATM    8  C   UNK N   1     167.657 155.962 189.121  0.00  0.00     0.004 A 
HETATM    9  C   UNK N   1     169.378 156.360 187.250  0.00  0.00     0.040 C 
HETATM   10  C   UNK N   1     167.074 153.507 184.694  0.00  0.00     0.015 C 
HETATM   11  C   UNK N   1     168.205 152.071 186.391  0.00  0.00     0.015 C 
HETATM   12  C   UNK N   1     168.704 156.736 188.550  0.00  0.00    -0.047 A 
HETATM   13  C   UNK N   1     167.124 156.366 190.372  0.00  0.00     0.107 A 
HETATM   14  C   UNK N   1     169.150 157.894 189.199  0.00  0.00     0.018 A 
HETATM   15  C   UNK N   1     168.615 158.311 190.430  0.00  0.00    -0.018 A 
HETATM   16  C   UNK N   1     167.594 157.520 191.028  0.00  0.00     0.106 A 
ENDROOT
BRANCH   2  17
HETATM   17  C   UNK N   1     167.639 153.529 189.275  0.00  0.00     0.154 C 
HETATM   18  O   UNK N   1     168.836 153.317 189.404  0.00  0.00    -0.649 OA
BRANCH  17  19
HETATM   19  O   UNK N   1     166.757 152.684 189.852  0.00  0.00    -0.775 OA
HETATM   20  H   UNK N   1     166.409 151.916 189.378  0.00  0.00     0.167 HD
ENDBRANCH  17  19
ENDBRANCH   2  17
BRANCH  13  21
HETATM   21  O   UNK N   1     166.146 155.631 190.950  0.00  0.00    -0.357 OA
HETATM   22  H   UNK N   1     165.401 156.021 191.427  0.00  0.00     0.218 HD
ENDBRANCH  13  21
BRANCH  16  23
HETATM   23  O   UNK N   1     167.054 157.821 192.234  0.00  0.00    -0.357 OA
HETATM   24  H   UNK N   1     166.159 158.131 192.395  0.00  0.00     0.218 HD
ENDBRANCH  16  23
BRANCH  15  25
HETATM   25  C   UNK N   1     169.159 159.587 191.080  0.00  0.00     0.013 C 
HETATM   26  C   UNK N   1     168.235 160.787 190.822  0.00  0.00     0.015 C 
HETATM   27  C   UNK N   1     170.585 159.876 190.598  0.00  0.00     0.015 C 
ENDBRANCH  15  25
TORSDOF 5
ENDMDL
MODEL 6
REMARK VINA RESULT:      -6.4     32.736     35.590
REMARK  5 active torsions:
REMARK  status: ('A' for Active; 'I' for Inactive)
REMARK    1  A    between atoms: O_1  and  C_17 
REMARK    2  A    between atoms: O_3  and  C_18 
REMARK    3  A    between atoms: O_4  and  C_21 
REMARK    4  A    between atoms: C_6  and  C_17 
REMARK    5  A    between atoms: C_20  and  C_22 
ROOT
HETATM    1  C   UNK N   1     133.640 168.036 176.697  0.00  0.00     0.017 C 
HETATM    2  C   UNK N   1     133.752 167.630 178.208  0.00  0.00     0.080 C 
HETATM    3  C   UNK N   1     132.595 167.148 175.886  0.00  0.00    -0.043 C 
HETATM    4  C   UNK N   1     132.321 167.922 178.831  0.00  0.00     0.026 C 
HETATM    5  C   UNK N   1     131.414 166.691 176.811  0.00  0.00     0.009 C 
HETATM    6  C   UNK N   1     135.009 168.179 176.028  0.00  0.00     0.011 C 
HETATM    7  C   UNK N   1     131.116 167.749 177.866  0.00  0.00     0.002 C 
HETATM    8  C   UNK N   1     134.849 168.432 178.950  0.00  0.00     0.004 A 
HETATM    9  C   UNK N   1     135.824 169.270 176.721  0.00  0.00     0.040 C 
HETATM   10  C   UNK N   1     132.028 168.010 174.726  0.00  0.00     0.015 C 
HETATM   11  C   UNK N   1     133.210 165.877 175.251  0.00  0.00     0.015 C 
HETATM   12  C   UNK N   1     135.802 169.204 178.232  0.00  0.00    -0.047 A 
HETATM   13  C   UNK N   1     134.941 168.390 180.364  0.00  0.00     0.107 A 
HETATM   14  C   UNK N   1     136.771 169.939 178.926  0.00  0.00     0.018 A 
HETATM   15  C   UNK N   1     136.858 169.917 180.328  0.00  0.00    -0.018 A 
HETATM   16  C   UNK N   1     135.933 169.115 181.053  0.00  0.00     0.106 A 
ENDROOT
BRANCH   2  17
HETATM   17  C   UNK N   1     134.168 166.162 178.376  0.00  0.00     0.154 C 
HETATM   18  O   UNK N   1     135.204 165.740 177.884  0.00  0.00    -0.649 OA
BRANCH  17  19
HETATM   19  O   UNK N   1     133.349 165.303 179.022  0.00  0.00    -0.775 OA
HETATM   20  H   UNK N   1     132.428 165.183 178.752  0.00  0.00     0.167 HD
ENDBRANCH  17  19
ENDBRANCH   2  17
BRANCH  13  21
HETATM   21  O   UNK N   1     134.063 167.641 181.070  0.00  0.00    -0.357 OA
HETATM   22  H   UNK N   1     133.406 167.064 180.657  0.00  0.00     0.218 HD
ENDBRANCH  13  21
BRANCH  16  23
HETATM   23  O   UNK N   1     135.973 168.998 182.402  0.00  0.00    -0.357 OA
HETATM   24  H   UNK N   1     135.277 168.646 182.964  0.00  0.00     0.218 HD
ENDBRANCH  16  23
BRANCH  15  25
HETATM   25  C   UNK N   1     137.950 170.744 181.015  0.00  0.00     0.013 C 
HETATM   26  C   UNK N   1     137.390 172.063 181.571  0.00  0.00     0.015 C 
HETATM   27  C   UNK N   1     139.118 171.003 180.057  0.00  0.00     0.015 C 
ENDBRANCH  15  25
TORSDOF 5
ENDMDL
MODEL 7
REMARK VINA RESULT:      -6.3      2.002      2.856
REMARK  5 active torsions:
REMARK  status: ('A' for Active; 'I' for Inactive)
REMARK    1  A    between atoms: O_1  and  C_17 
REMARK    2  A    between atoms: O_3  and  C_18 
REMARK    3  A    between atoms: O_4  and  C_21 
REMARK    4  A    between atoms: C_6  and  C_17 
REMARK    5  A    between atoms: C_20  and  C_22 
ROOT
HETATM    1  C   UNK N   1     151.004 157.840 152.365  0.00  0.00     0.017 C 
HETATM    2  C   UNK N   1     151.376 156.675 151.384  0.00  0.00     0.080 C 
HETATM    3  C   UNK N   1     152.270 158.674 152.856  0.00  0.00    -0.043 C 
HETATM    4  C   UNK N   1     151.984 157.383 150.099  0.00  0.00     0.026 C 
HETATM    5  C   UNK N   1     153.374 158.719 151.744  0.00  0.00     0.009 C 
HETATM    6  C   UNK N   1     150.069 157.381 153.487  0.00  0.00     0.011 C 
HETATM    7  C   UNK N   1     152.742 158.715 150.357  0.00  0.00     0.002 C 
HETATM    8  C   UNK N   1     150.147 155.813 151.005  0.00  0.00     0.004 A 
HETATM    9  C   UNK N   1     148.758 156.858 152.902  0.00  0.00     0.040 C 
HETATM   10  C   UNK N   1     151.802 160.120 153.168  0.00  0.00     0.015 C 
HETATM   11  C   UNK N   1     152.927 158.119 154.144  0.00  0.00     0.015 C 
HETATM   12  C   UNK N   1     148.926 155.925 151.724  0.00  0.00    -0.047 A 
HETATM   13  C   UNK N   1     150.225 154.870 149.948  0.00  0.00     0.107 A 
HETATM   14  C   UNK N   1     147.821 155.150 151.349  0.00  0.00     0.018 A 
HETATM   15  C   UNK N   1     147.884 154.228 150.291  0.00  0.00    -0.018 A 
HETATM   16  C   UNK N   1     149.115 154.079 149.592  0.00  0.00     0.106 A 
ENDROOT
BRANCH   2  17
HETATM   17  C   UNK N   1     152.361 155.684 152.019  0.00  0.00     0.154 C 
HETATM   18  O   UNK N   1     152.121 155.159 153.096  0.00  0.00    -0.649 OA
BRANCH  17  19
HETATM   19  O   UNK N   1     153.543 155.433 151.414  0.00  0.00    -0.775 OA
HETATM   20  H   UNK N   1     153.586 155.064 150.520  0.00  0.00     0.167 HD
ENDBRANCH  17  19
ENDBRANCH   2  17
BRANCH  13  21
HETATM   21  O   UNK N   1     151.384 154.725 149.266  0.00  0.00    -0.357 OA
HETATM   22  H   UNK N   1     151.966 153.960 149.367  0.00  0.00     0.218 HD
ENDBRANCH  13  21
BRANCH  16  23
HETATM   23  O   UNK N   1     149.279 153.182 148.590  0.00  0.00    -0.357 OA
HETATM   24  H   UNK N   1     148.796 152.359 148.478  0.00  0.00     0.218 HD
ENDBRANCH  16  23
BRANCH  15  25
HETATM   25  C   UNK N   1     146.634 153.412 149.944  0.00  0.00     0.013 C 
HETATM   26  C   UNK N   1     145.889 154.011 148.740  0.00  0.00     0.015 C 
HETATM   27  C   UNK N   1     145.709 153.294 151.160  0.00  0.00     0.015 C 
ENDBRANCH  15  25
TORSDOF 5
ENDMDL
MODEL 8
REMARK VINA RESULT:      -6.2     37.823     40.582
REMARK  5 active torsions:
REMARK  status: ('A' for Active; 'I' for Inactive)
REMARK    1  A    between atoms: O_1  and  C_17 
REMARK    2  A    between atoms: O_3  and  C_18 
REMARK    3  A    between atoms: O_4  and  C_21 
REMARK    4  A    between atoms: C_6  and  C_17 
REMARK    5  A    between atoms: C_20  and  C_22 
ROOT
HETATM    1  C   UNK N   1     156.020 141.635 188.318  0.00  0.00     0.017 C 
HETATM    2  C   UNK N   1     154.659 141.194 188.962  0.00  0.00     0.080 C 
HETATM    3  C   UNK N   1     157.285 140.934 188.986  0.00  0.00    -0.043 C 
HETATM    4  C   UNK N   1     154.534 139.640 188.661  0.00  0.00     0.026 C 
HETATM    5  C   UNK N   1     156.924 139.493 189.489  0.00  0.00     0.009 C 
HETATM    6  C   UNK N   1     156.134 143.155 188.180  0.00  0.00     0.011 C 
HETATM    7  C   UNK N   1     155.873 138.856 188.587  0.00  0.00     0.002 C 
HETATM    8  C   UNK N   1     153.455 141.967 188.372  0.00  0.00     0.004 A 
HETATM    9  C   UNK N   1     155.022 143.688 187.276  0.00  0.00     0.040 C 
HETATM   10  C   UNK N   1     158.402 140.834 187.913  0.00  0.00     0.015 C 
HETATM   11  C   UNK N   1     157.875 141.714 190.187  0.00  0.00     0.015 C 
HETATM   12  C   UNK N   1     153.650 143.126 187.574  0.00  0.00    -0.047 A 
HETATM   13  C   UNK N   1     152.127 141.547 188.640  0.00  0.00     0.107 A 
HETATM   14  C   UNK N   1     152.545 143.796 187.033  0.00  0.00     0.018 A 
HETATM   15  C   UNK N   1     151.227 143.376 187.279  0.00  0.00    -0.018 A 
HETATM   16  C   UNK N   1     151.020 142.240 188.110  0.00  0.00     0.106 A 
ENDROOT
BRANCH   2  17
HETATM   17  C   UNK N   1     154.613 141.497 190.466  0.00  0.00     0.154 C 
HETATM   18  O   UNK N   1     154.793 142.631 190.886  0.00  0.00    -0.649 OA
BRANCH  17  19
HETATM   19  O   UNK N   1     154.435 140.490 191.348  0.00  0.00    -0.775 OA
HETATM   20  H   UNK N   1     153.633 140.426 191.887  0.00  0.00     0.167 HD
ENDBRANCH  17  19
ENDBRANCH   2  17
BRANCH  13  21
HETATM   21  O   UNK N   1     151.913 140.462 189.420  0.00  0.00    -0.357 OA
HETATM   22  H   UNK N   1     151.541 139.635 189.087  0.00  0.00     0.218 HD
ENDBRANCH  13  21
BRANCH  16  23
HETATM   23  O   UNK N   1     149.785 141.793 188.438  0.00  0.00    -0.357 OA
HETATM   24  H   UNK N   1     149.582 141.044 189.005  0.00  0.00     0.218 HD
ENDBRANCH  16  23
BRANCH  15  25
HETATM   25  C   UNK N   1     150.070 144.164 186.656  0.00  0.00     0.013 C 
HETATM   26  C   UNK N   1     149.577 143.507 185.358  0.00  0.00     0.015 C 
HETATM   27  C   UNK N   1     150.475 145.623 186.415  0.00  0.00     0.015 C 
ENDBRANCH  15  25
TORSDOF 5
ENDMDL
MODEL 9
REMARK VINA RESULT:      -6.1     28.719     31.113
REMARK  5 active torsions:
REMARK  status: ('A' for Active; 'I' for Inactive)
REMARK    1  A    between atoms: O_1  and  C_17 
REMARK    2  A    between atoms: O_3  and  C_18 
REMARK    3  A    between atoms: O_4  and  C_21 
REMARK    4  A    between atoms: C_6  and  C_17 
REMARK    5  A    between atoms: C_20  and  C_22 
ROOT
HETATM    1  C   UNK N   1     158.426 124.378 154.992  0.00  0.00     0.017 C 
HETATM    2  C   UNK N   1     158.842 125.879 154.806  0.00  0.00     0.080 C 
HETATM    3  C   UNK N   1     158.464 123.545 153.635  0.00  0.00    -0.043 C 
HETATM    4  C   UNK N   1     160.357 125.841 154.334  0.00  0.00     0.026 C 
HETATM    5  C   UNK N   1     159.587 124.082 152.681  0.00  0.00     0.009 C 
HETATM    6  C   UNK N   1     157.132 124.228 155.796  0.00  0.00     0.011 C 
HETATM    7  C   UNK N   1     160.771 124.607 153.486  0.00  0.00     0.002 C 
HETATM    8  C   UNK N   1     158.694 126.694 156.114  0.00  0.00     0.004 A 
HETATM    9  C   UNK N   1     157.308 124.816 157.195  0.00  0.00     0.040 C 
HETATM   10  C   UNK N   1     158.761 122.064 153.987  0.00  0.00     0.015 C 
HETATM   11  C   UNK N   1     157.132 123.568 152.845  0.00  0.00     0.015 C 
HETATM   12  C   UNK N   1     157.981 126.170 157.225  0.00  0.00    -0.047 A 
HETATM   13  C   UNK N   1     159.246 127.997 156.219  0.00  0.00     0.107 A 
HETATM   14  C   UNK N   1     157.879 126.916 158.406  0.00  0.00     0.018 A 
HETATM   15  C   UNK N   1     158.438 128.200 158.524  0.00  0.00    -0.018 A 
HETATM   16  C   UNK N   1     159.120 128.750 157.402  0.00  0.00     0.106 A 
ENDROOT
BRANCH   2  17
HETATM   17  C   UNK N   1     157.940 126.603 153.797  0.00  0.00     0.154 C 
HETATM   18  O   UNK N   1     158.406 127.124 152.794  0.00  0.00    -0.649 OA
BRANCH  17  19
HETATM   19  O   UNK N   1     156.618 126.725 154.047  0.00  0.00    -0.775 OA
HETATM   20  H   UNK N   1     156.255 126.576 154.932  0.00  0.00     0.167 HD
ENDBRANCH  17  19
ENDBRANCH   2  17
BRANCH  13  21
HETATM   21  O   UNK N   1     159.906 128.530 155.165  0.00  0.00    -0.357 OA
HETATM   22  H   UNK N   1     159.475 129.068 154.487  0.00  0.00     0.218 HD
ENDBRANCH  13  21
BRANCH  16  23
HETATM   23  O   UNK N   1     159.649 129.997 157.412  0.00  0.00    -0.357 OA
HETATM   24  H   UNK N   1     159.315 130.754 157.900  0.00  0.00     0.218 HD
ENDBRANCH  16  23
BRANCH  15  25
HETATM   25  C   UNK N   1     158.281 128.958 159.847  0.00  0.00     0.013 C 
HETATM   26  C   UNK N   1     159.575 128.920 160.674  0.00  0.00     0.015 C 
HETATM   27  C   UNK N   1     157.098 128.405 160.650  0.00  0.00     0.015 C 
ENDBRANCH  15  25
TORSDOF 5
ENDMDL
