MODEL 1
REMARK VINA RESULT:      -8.0      0.000      0.000
REMARK  7 active torsions:
REMARK  status: ('A' for Active; 'I' for Inactive)
REMARK    1  A    between atoms: O_3  and  C_20 
REMARK    2  A    between atoms: O_4  and  C_23 
REMARK    3  A    between atoms: O_5  and  C_25 
REMARK    4  A    between atoms: O_6  and  C_26 
REMARK    5  A    between atoms: C_22  and  C_24 
REMARK    6  A    between atoms: C_24  and  C_25 
REMARK    7  A    between atoms: C_24  and  C_26 
ROOT
HETATM    1  O   UNK N   1     153.744 151.553 143.461  0.00  0.00    -0.310 OA
HETATM    2  O   UNK N   1     154.716 149.542 143.168  0.00  0.00    -0.264 OA
HETATM    3  C   UNK N   1     151.248 150.123 143.176  0.00  0.00     0.019 C 
HETATM    4  C   UNK N   1     152.452 149.557 144.037  0.00  0.00     0.083 C 
HETATM    5  C   UNK N   1     150.872 149.243 141.949  0.00  0.00    -0.043 C 
HETATM    6  C   UNK N   1     151.442 151.673 142.939  0.00  0.00     0.044 C 
HETATM    7  C   UNK N   1     152.514 147.992 144.024  0.00  0.00     0.025 C 
HETATM    8  C   UNK N   1     150.535 147.787 142.460  0.00  0.00     0.009 C 
HETATM    9  C   UNK N   1     152.576 152.197 143.871  0.00  0.00     0.166 C 
HETATM   10  C   UNK N   1     152.250 150.287 145.394  0.00  0.00     0.006 A 
HETATM   11  C   UNK N   1     151.112 147.417 143.858  0.00  0.00     0.002 C 
HETATM   12  C   UNK N   1     152.300 151.693 145.277  0.00  0.00    -0.018 A 
HETATM   13  C   UNK N   1     153.739 150.189 143.508  0.00  0.00     0.273 C 
HETATM   14  C   UNK N   1     152.028 149.198 140.912  0.00  0.00     0.015 C 
HETATM   15  C   UNK N   1     149.631 149.813 141.228  0.00  0.00     0.015 C 
HETATM   16  C   UNK N   1     152.020 149.705 146.659  0.00  0.00     0.107 A 
HETATM   17  C   UNK N   1     152.150 152.520 146.382  0.00  0.00     0.021 A 
HETATM   18  C   UNK N   1     151.941 151.963 147.654  0.00  0.00    -0.013 A 
HETATM   19  C   UNK N   1     151.881 150.548 147.800  0.00  0.00     0.106 A 
ENDROOT
BRANCH  18  20
HETATM   20  C   UNK N   1     151.788 152.906 148.846  0.00  0.00     0.069 C 
BRANCH  20  21
HETATM   21  C   UNK N   1     153.157 153.402 149.354  0.00  0.00     0.175 C 
BRANCH  21  22
HETATM   22  O   UNK N   1     153.908 153.943 148.299  0.00  0.00    -0.400 OA
HETATM   23  H   UNK N   1     153.458 153.665 147.459  0.00  0.00     0.209 HD
ENDBRANCH  21  22
ENDBRANCH  20  21
BRANCH  20  24
HETATM   24  C   UNK N   1     150.843 154.084 148.531  0.00  0.00     0.175 C 
BRANCH  24  25
HETATM   25  O   UNK N   1     151.558 155.289 148.469  0.00  0.00    -0.400 OA
HETATM   26  H   UNK N   1     150.885 156.017 148.420  0.00  0.00     0.209 HD
ENDBRANCH  24  25
ENDBRANCH  20  24
ENDBRANCH  18  20
BRANCH  19  27
HETATM   27  O   UNK N   1     151.701 150.031 149.036  0.00  0.00    -0.357 OA
HETATM   28  H   UNK N   1     151.900 149.123 149.289  0.00  0.00     0.218 HD
ENDBRANCH  19  27
BRANCH  16  29
HETATM   29  O   UNK N   1     151.915 148.363 146.766  0.00  0.00    -0.357 OA
HETATM   30  H   UNK N   1     152.269 147.837 147.492  0.00  0.00     0.218 HD
ENDBRANCH  16  29
TORSDOF 7
ENDMDL
MODEL 2
REMARK VINA RESULT:      -7.5      1.837      2.336
REMARK  7 active torsions:
REMARK  status: ('A' for Active; 'I' for Inactive)
REMARK    1  A    between atoms: O_3  and  C_20 
REMARK    2  A    between atoms: O_4  and  C_23 
REMARK    3  A    between atoms: O_5  and  C_25 
REMARK    4  A    between atoms: O_6  and  C_26 
REMARK    5  A    between atoms: C_22  and  C_24 
REMARK    6  A    between atoms: C_24  and  C_25 
REMARK    7  A    between atoms: C_24  and  C_26 
ROOT
HETATM    1  O   UNK N   1     152.974 149.487 143.925  0.00  0.00    -0.310 OA
HETATM    2  O   UNK N   1     151.546 147.827 143.394  0.00  0.00    -0.264 OA
HETATM    3  C   UNK N   1     151.110 151.210 142.540  0.00  0.00     0.019 C 
HETATM    4  C   UNK N   1     150.629 150.068 143.529  0.00  0.00     0.083 C 
HETATM    5  C   UNK N   1     150.654 151.009 141.066  0.00  0.00    -0.043 C 
HETATM    6  C   UNK N   1     152.632 151.539 142.802  0.00  0.00     0.044 C 
HETATM    7  C   UNK N   1     149.253 149.452 143.109  0.00  0.00     0.025 C 
HETATM    8  C   UNK N   1     149.079 150.896 141.039  0.00  0.00     0.009 C 
HETATM    9  C   UNK N   1     153.082 150.863 144.133  0.00  0.00     0.166 C 
HETATM   10  C   UNK N   1     150.746 150.768 144.912  0.00  0.00     0.006 A 
HETATM   11  C   UNK N   1     148.412 150.498 142.388  0.00  0.00     0.002 C 
HETATM   12  C   UNK N   1     152.058 151.200 145.202  0.00  0.00    -0.018 A 
HETATM   13  C   UNK N   1     151.735 149.016 143.595  0.00  0.00     0.273 C 
HETATM   14  C   UNK N   1     151.298 149.740 140.444  0.00  0.00     0.015 C 
HETATM   15  C   UNK N   1     151.077 152.213 140.196  0.00  0.00     0.015 C 
HETATM   16  C   UNK N   1     149.715 151.009 145.845  0.00  0.00     0.107 A 
HETATM   17  C   UNK N   1     152.364 151.840 146.396  0.00  0.00     0.021 A 
HETATM   18  C   UNK N   1     151.359 152.073 147.348  0.00  0.00    -0.013 A 
HETATM   19  C   UNK N   1     150.027 151.651 147.078  0.00  0.00     0.106 A 
ENDROOT
BRANCH  18  20
HETATM   20  C   UNK N   1     151.738 152.772 148.652  0.00  0.00     0.069 C 
BRANCH  20  21
HETATM   21  C   UNK N   1     153.267 152.826 148.842  0.00  0.00     0.175 C 
BRANCH  21  22
HETATM   22  O   UNK N   1     153.749 154.122 148.600  0.00  0.00    -0.400 OA
HETATM   23  H   UNK N   1     153.698 154.609 149.463  0.00  0.00     0.209 HD
ENDBRANCH  21  22
ENDBRANCH  20  21
BRANCH  20  24
HETATM   24  C   UNK N   1     151.107 154.176 148.756  0.00  0.00     0.175 C 
BRANCH  24  25
HETATM   25  O   UNK N   1     151.146 154.829 147.516  0.00  0.00    -0.400 OA
HETATM   26  H   UNK N   1     150.965 155.789 147.694  0.00  0.00     0.209 HD
ENDBRANCH  24  25
ENDBRANCH  20  24
ENDBRANCH  18  20
BRANCH  19  27
HETATM   27  O   UNK N   1     149.076 151.864 148.017  0.00  0.00    -0.357 OA
HETATM   28  H   UNK N   1     149.192 151.719 148.962  0.00  0.00     0.218 HD
ENDBRANCH  19  27
BRANCH  16  29
HETATM   29  O   UNK N   1     148.448 150.647 145.546  0.00  0.00    -0.357 OA
HETATM   30  H   UNK N   1     147.681 151.229 145.591  0.00  0.00     0.218 HD
ENDBRANCH  16  29
TORSDOF 7
ENDMDL
MODEL 3
REMARK VINA RESULT:      -7.0      2.092      4.065
REMARK  7 active torsions:
REMARK  status: ('A' for Active; 'I' for Inactive)
REMARK    1  A    between atoms: O_3  and  C_20 
REMARK    2  A    between atoms: O_4  and  C_23 
REMARK    3  A    between atoms: O_5  and  C_25 
REMARK    4  A    between atoms: O_6  and  C_26 
REMARK    5  A    between atoms: C_22  and  C_24 
REMARK    6  A    between atoms: C_24  and  C_25 
REMARK    7  A    between atoms: C_24  and  C_26 
ROOT
HETATM    1  O   UNK N   1     149.353 148.611 143.356  0.00  0.00    -0.310 OA
HETATM    2  O   UNK N   1     148.120 150.063 142.152  0.00  0.00    -0.264 OA
HETATM    3  C   UNK N   1     151.584 149.575 141.790  0.00  0.00     0.019 C 
HETATM    4  C   UNK N   1     150.485 150.551 142.383  0.00  0.00     0.083 C 
HETATM    5  C   UNK N   1     151.643 149.552 140.235  0.00  0.00    -0.043 C 
HETATM    6  C   UNK N   1     151.532 148.189 142.545  0.00  0.00     0.044 C 
HETATM    7  C   UNK N   1     150.242 151.802 141.475  0.00  0.00     0.025 C 
HETATM    8  C   UNK N   1     151.891 151.025 139.721  0.00  0.00     0.009 C 
HETATM    9  C   UNK N   1     150.640 148.329 143.815  0.00  0.00     0.166 C 
HETATM   10  C   UNK N   1     150.996 150.767 143.835  0.00  0.00     0.006 A 
HETATM   11  C   UNK N   1     151.519 152.156 140.723  0.00  0.00     0.002 C 
HETATM   12  C   UNK N   1     151.089 149.567 144.572  0.00  0.00    -0.018 A 
HETATM   13  C   UNK N   1     149.209 149.738 142.598  0.00  0.00     0.273 C 
HETATM   14  C   UNK N   1     150.332 148.982 139.629  0.00  0.00     0.015 C 
HETATM   15  C   UNK N   1     152.803 148.657 139.746  0.00  0.00     0.015 C 
HETATM   16  C   UNK N   1     151.367 151.984 144.445  0.00  0.00     0.107 A 
HETATM   17  C   UNK N   1     151.518 149.556 145.892  0.00  0.00     0.021 A 
HETATM   18  C   UNK N   1     151.873 150.757 146.526  0.00  0.00    -0.013 A 
HETATM   19  C   UNK N   1     151.792 151.982 145.805  0.00  0.00     0.106 A 
ENDROOT
BRANCH  18  20
HETATM   20  C   UNK N   1     152.331 150.705 147.983  0.00  0.00     0.069 C 
BRANCH  20  21
HETATM   21  C   UNK N   1     151.316 151.388 148.921  0.00  0.00     0.175 C 
BRANCH  21  22
HETATM   22  O   UNK N   1     150.034 150.846 148.739  0.00  0.00    -0.400 OA
HETATM   23  H   UNK N   1     150.083 150.264 147.936  0.00  0.00     0.209 HD
ENDBRANCH  21  22
ENDBRANCH  20  21
BRANCH  20  24
HETATM   24  C   UNK N   1     152.638 149.263 148.438  0.00  0.00     0.175 C 
BRANCH  24  25
HETATM   25  O   UNK N   1     152.150 149.039 149.733  0.00  0.00    -0.400 OA
HETATM   26  H   UNK N   1     151.160 149.092 149.678  0.00  0.00     0.209 HD
ENDBRANCH  24  25
ENDBRANCH  20  24
ENDBRANCH  18  20
BRANCH  19  27
HETATM   27  O   UNK N   1     152.117 153.131 146.440  0.00  0.00    -0.357 OA
HETATM   28  H   UNK N   1     153.006 153.500 146.493  0.00  0.00     0.218 HD
ENDBRANCH  19  27
BRANCH  16  29
HETATM   29  O   UNK N   1     151.332 153.127 143.726  0.00  0.00    -0.357 OA
HETATM   30  H   UNK N   1     150.529 153.588 143.459  0.00  0.00     0.218 HD
ENDBRANCH  16  29
TORSDOF 7
ENDMDL
MODEL 4
REMARK VINA RESULT:      -6.8     38.533     41.772
REMARK  7 active torsions:
REMARK  status: ('A' for Active; 'I' for Inactive)
REMARK    1  A    between atoms: O_3  and  C_20 
REMARK    2  A    between atoms: O_4  and  C_23 
REMARK    3  A    between atoms: O_5  and  C_25 
REMARK    4  A    between atoms: O_6  and  C_26 
REMARK    5  A    between atoms: C_22  and  C_24 
REMARK    6  A    between atoms: C_24  and  C_25 
REMARK    7  A    between atoms: C_24  and  C_26 
ROOT
HETATM    1  O   UNK N   1     129.923 166.507 177.479  0.00  0.00    -0.310 OA
HETATM    2  O   UNK N   1     131.066 168.396 177.925  0.00  0.00    -0.264 OA
HETATM    3  C   UNK N   1     132.434 165.515 176.444  0.00  0.00     0.019 C 
HETATM    4  C   UNK N   1     132.344 166.339 177.795  0.00  0.00     0.083 C 
HETATM    5  C   UNK N   1     133.263 166.212 175.326  0.00  0.00    -0.043 C 
HETATM    6  C   UNK N   1     131.008 164.955 176.063  0.00  0.00     0.044 C 
HETATM    7  C   UNK N   1     133.624 167.203 178.056  0.00  0.00     0.025 C 
HETATM    8  C   UNK N   1     134.713 166.501 175.883  0.00  0.00     0.009 C 
HETATM    9  C   UNK N   1     130.045 165.131 177.276  0.00  0.00     0.166 C 
HETATM   10  C   UNK N   1     131.962 165.236 178.821  0.00  0.00     0.006 A 
HETATM   11  C   UNK N   1     134.842 166.531 177.434  0.00  0.00     0.002 C 
HETATM   12  C   UNK N   1     130.744 164.594 178.513  0.00  0.00    -0.018 A 
HETATM   13  C   UNK N   1     131.077 167.191 177.736  0.00  0.00     0.273 C 
HETATM   14  C   UNK N   1     132.588 167.532 174.864  0.00  0.00     0.015 C 
HETATM   15  C   UNK N   1     133.383 165.299 174.087  0.00  0.00     0.015 C 
HETATM   16  C   UNK N   1     132.689 164.832 179.962  0.00  0.00     0.107 A 
HETATM   17  C   UNK N   1     130.231 163.585 179.317  0.00  0.00     0.021 A 
HETATM   18  C   UNK N   1     130.926 163.181 180.468  0.00  0.00    -0.013 A 
HETATM   19  C   UNK N   1     132.159 163.809 180.800  0.00  0.00     0.106 A 
ENDROOT
BRANCH  18  20
HETATM   20  C   UNK N   1     130.324 162.074 181.332  0.00  0.00     0.069 C 
BRANCH  20  21
HETATM   21  C   UNK N   1     129.748 162.634 182.648  0.00  0.00     0.175 C 
BRANCH  21  22
HETATM   22  O   UNK N   1     130.628 162.394 183.714  0.00  0.00    -0.400 OA
HETATM   23  H   UNK N   1     130.852 163.281 184.102  0.00  0.00     0.209 HD
ENDBRANCH  21  22
ENDBRANCH  20  21
BRANCH  20  24
HETATM   24  C   UNK N   1     129.272 161.250 180.562  0.00  0.00     0.175 C 
BRANCH  24  25
HETATM   25  O   UNK N   1     129.789 159.997 180.205  0.00  0.00    -0.400 OA
HETATM   26  H   UNK N   1     130.524 160.165 179.559  0.00  0.00     0.209 HD
ENDBRANCH  24  25
ENDBRANCH  20  24
ENDBRANCH  18  20
BRANCH  19  27
HETATM   27  O   UNK N   1     132.803 163.421 181.925  0.00  0.00    -0.357 OA
HETATM   28  H   UNK N   1     133.573 162.842 181.948  0.00  0.00     0.218 HD
ENDBRANCH  19  27
BRANCH  16  29
HETATM   29  O   UNK N   1     133.882 165.406 180.229  0.00  0.00    -0.357 OA
HETATM   30  H   UNK N   1     134.718 164.933 180.308  0.00  0.00     0.218 HD
ENDBRANCH  16  29
TORSDOF 7
ENDMDL
MODEL 5
REMARK VINA RESULT:      -6.8     38.058     42.598
REMARK  7 active torsions:
REMARK  status: ('A' for Active; 'I' for Inactive)
REMARK    1  A    between atoms: O_3  and  C_20 
REMARK    2  A    between atoms: O_4  and  C_23 
REMARK    3  A    between atoms: O_5  and  C_25 
REMARK    4  A    between atoms: O_6  and  C_26 
REMARK    5  A    between atoms: C_22  and  C_24 
REMARK    6  A    between atoms: C_24  and  C_25 
REMARK    7  A    between atoms: C_24  and  C_26 
ROOT
HETATM    1  O   UNK N   1     131.179 164.335 180.144  0.00  0.00    -0.310 OA
HETATM    2  O   UNK N   1     130.890 165.811 181.822  0.00  0.00    -0.264 OA
HETATM    3  C   UNK N   1     128.549 165.168 179.277  0.00  0.00     0.019 C 
HETATM    4  C   UNK N   1     129.640 166.203 179.781  0.00  0.00     0.083 C 
HETATM    5  C   UNK N   1     127.270 165.109 180.162  0.00  0.00    -0.043 C 
HETATM    6  C   UNK N   1     129.244 163.803 178.894  0.00  0.00     0.044 C 
HETATM    7  C   UNK N   1     129.004 167.443 180.495  0.00  0.00     0.025 C 
HETATM    8  C   UNK N   1     126.647 166.559 180.242  0.00  0.00     0.009 C 
HETATM    9  C   UNK N   1     130.788 164.008 178.844  0.00  0.00     0.166 C 
HETATM   10  C   UNK N   1     130.487 166.429 178.498  0.00  0.00     0.006 A 
HETATM   11  C   UNK N   1     127.623 167.726 179.916  0.00  0.00     0.002 C 
HETATM   12  C   UNK N   1     131.072 165.243 178.007  0.00  0.00    -0.018 A 
HETATM   13  C   UNK N   1     130.609 165.449 180.690  0.00  0.00     0.273 C 
HETATM   14  C   UNK N   1     127.595 164.582 181.587  0.00  0.00     0.015 C 
HETATM   15  C   UNK N   1     126.224 164.155 179.546  0.00  0.00     0.015 C 
HETATM   16  C   UNK N   1     130.700 167.643 177.810  0.00  0.00     0.107 A 
HETATM   17  C   UNK N   1     131.872 165.243 176.872  0.00  0.00     0.021 A 
HETATM   18  C   UNK N   1     132.116 166.442 176.183  0.00  0.00    -0.013 A 
HETATM   19  C   UNK N   1     131.534 167.653 176.654  0.00  0.00     0.106 A 
ENDROOT
BRANCH  18  20
HETATM   20  C   UNK N   1     133.009 166.403 174.944  0.00  0.00     0.069 C 
BRANCH  20  21
HETATM   21  C   UNK N   1     133.922 165.160 174.944  0.00  0.00     0.175 C 
BRANCH  21  22
HETATM   22  O   UNK N   1     133.570 164.290 173.901  0.00  0.00    -0.400 OA
HETATM   23  H   UNK N   1     133.654 164.808 173.058  0.00  0.00     0.209 HD
ENDBRANCH  21  22
ENDBRANCH  20  21
BRANCH  20  24
HETATM   24  C   UNK N   1     132.189 166.501 173.641  0.00  0.00     0.175 C 
BRANCH  24  25
HETATM   25  O   UNK N   1     131.178 165.530 173.618  0.00  0.00    -0.400 OA
HETATM   26  H   UNK N   1     131.628 164.648 173.687  0.00  0.00     0.209 HD
ENDBRANCH  24  25
ENDBRANCH  20  24
ENDBRANCH  18  20
BRANCH  19  27
HETATM   27  O   UNK N   1     131.798 168.801 175.990  0.00  0.00    -0.357 OA
HETATM   28  H   UNK N   1     131.135 169.368 175.582  0.00  0.00     0.218 HD
ENDBRANCH  19  27
BRANCH  16  29
HETATM   29  O   UNK N   1     130.096 168.770 178.245  0.00  0.00    -0.357 OA
HETATM   30  H   UNK N   1     130.063 169.603 177.760  0.00  0.00     0.218 HD
ENDBRANCH  16  29
TORSDOF 7
ENDMDL
MODEL 6
REMARK VINA RESULT:      -6.8     27.350     29.954
REMARK  7 active torsions:
REMARK  status: ('A' for Active; 'I' for Inactive)
REMARK    1  A    between atoms: O_3  and  C_20 
REMARK    2  A    between atoms: O_4  and  C_23 
REMARK    3  A    between atoms: O_5  and  C_25 
REMARK    4  A    between atoms: O_6  and  C_26 
REMARK    5  A    between atoms: C_22  and  C_24 
REMARK    6  A    between atoms: C_24  and  C_25 
REMARK    7  A    between atoms: C_24  and  C_26 
ROOT
HETATM    1  O   UNK N   1     160.120 122.028 155.470  0.00  0.00    -0.310 OA
HETATM    2  O   UNK N   1     158.126 121.748 156.481  0.00  0.00    -0.264 OA
HETATM    3  C   UNK N   1     158.862 120.793 153.178  0.00  0.00     0.019 C 
HETATM    4  C   UNK N   1     158.125 121.884 154.060  0.00  0.00     0.083 C 
HETATM    5  C   UNK N   1     158.181 119.394 153.194  0.00  0.00    -0.043 C 
HETATM    6  C   UNK N   1     160.419 120.857 153.438  0.00  0.00     0.044 C 
HETATM    7  C   UNK N   1     156.577 121.659 154.120  0.00  0.00     0.025 C 
HETATM    8  C   UNK N   1     156.685 119.558 152.714  0.00  0.00     0.009 C 
HETATM    9  C   UNK N   1     160.753 122.156 154.233  0.00  0.00     0.166 C 
HETATM   10  C   UNK N   1     158.667 123.209 153.453  0.00  0.00     0.006 A 
HETATM   11  C   UNK N   1     156.096 120.994 152.836  0.00  0.00     0.002 C 
HETATM   12  C   UNK N   1     160.071 123.321 153.540  0.00  0.00    -0.018 A 
HETATM   13  C   UNK N   1     158.764 121.869 155.448  0.00  0.00     0.273 C 
HETATM   14  C   UNK N   1     158.227 118.761 154.612  0.00  0.00     0.015 C 
HETATM   15  C   UNK N   1     158.904 118.424 152.234  0.00  0.00     0.015 C 
HETATM   16  C   UNK N   1     157.925 124.244 152.846  0.00  0.00     0.107 A 
HETATM   17  C   UNK N   1     160.741 124.439 153.059  0.00  0.00     0.021 A 
HETATM   18  C   UNK N   1     160.022 125.491 152.470  0.00  0.00    -0.013 A 
HETATM   19  C   UNK N   1     158.605 125.401 152.366  0.00  0.00     0.106 A 
ENDROOT
BRANCH  18  20
HETATM   20  C   UNK N   1     160.794 126.707 151.962  0.00  0.00     0.069 C 
BRANCH  20  21
HETATM   21  C   UNK N   1     160.928 127.789 153.052  0.00  0.00     0.175 C 
BRANCH  21  22
HETATM   22  O   UNK N   1     159.782 128.598 153.086  0.00  0.00    -0.400 OA
HETATM   23  H   UNK N   1     159.158 128.236 152.405  0.00  0.00     0.209 HD
ENDBRANCH  21  22
ENDBRANCH  20  21
BRANCH  20  24
HETATM   24  C   UNK N   1     162.171 126.314 151.386  0.00  0.00     0.175 C 
BRANCH  24  25
HETATM   25  O   UNK N   1     162.032 125.765 150.103  0.00  0.00    -0.400 OA
HETATM   26  H   UNK N   1     162.575 126.327 149.492  0.00  0.00     0.209 HD
ENDBRANCH  24  25
ENDBRANCH  20  24
ENDBRANCH  18  20
BRANCH  19  27
HETATM   27  O   UNK N   1     157.928 126.434 151.815  0.00  0.00    -0.357 OA
HETATM   28  H   UNK N   1     158.154 126.860 150.981  0.00  0.00     0.218 HD
ENDBRANCH  19  27
BRANCH  16  29
HETATM   29  O   UNK N   1     156.587 124.115 152.712  0.00  0.00    -0.357 OA
HETATM   30  H   UNK N   1     156.132 123.300 152.469  0.00  0.00     0.218 HD
ENDBRANCH  16  29
TORSDOF 7
ENDMDL
MODEL 7
REMARK VINA RESULT:      -6.6     41.350     43.643
REMARK  7 active torsions:
REMARK  status: ('A' for Active; 'I' for Inactive)
REMARK    1  A    between atoms: O_3  and  C_20 
REMARK    2  A    between atoms: O_4  and  C_23 
REMARK    3  A    between atoms: O_5  and  C_25 
REMARK    4  A    between atoms: O_6  and  C_26 
REMARK    5  A    between atoms: C_22  and  C_24 
REMARK    6  A    between atoms: C_24  and  C_25 
REMARK    7  A    between atoms: C_24  and  C_26 
ROOT
HETATM    1  O   UNK N   1     142.021 163.615 187.645  0.00  0.00    -0.310 OA
HETATM    2  O   UNK N   1     143.736 165.074 187.567  0.00  0.00    -0.264 OA
HETATM    3  C   UNK N   1     142.532 163.232 184.825  0.00  0.00     0.019 C 
HETATM    4  C   UNK N   1     143.702 163.323 185.890  0.00  0.00     0.083 C 
HETATM    5  C   UNK N   1     142.541 164.375 183.768  0.00  0.00    -0.043 C 
HETATM    6  C   UNK N   1     141.168 162.915 185.555  0.00  0.00     0.044 C 
HETATM    7  C   UNK N   1     145.002 163.965 185.299  0.00  0.00     0.025 C 
HETATM    8  C   UNK N   1     143.942 164.370 183.037  0.00  0.00     0.009 C 
HETATM    9  C   UNK N   1     141.458 162.497 187.028  0.00  0.00     0.166 C 
HETATM   10  C   UNK N   1     143.763 161.866 186.428  0.00  0.00     0.006 A 
HETATM   11  C   UNK N   1     145.097 163.667 183.807  0.00  0.00     0.002 C 
HETATM   12  C   UNK N   1     142.551 161.442 187.011  0.00  0.00    -0.018 A 
HETATM   13  C   UNK N   1     143.173 164.100 187.095  0.00  0.00     0.273 C 
HETATM   14  C   UNK N   1     142.281 165.756 184.429  0.00  0.00     0.015 C 
HETATM   15  C   UNK N   1     141.434 164.153 182.715  0.00  0.00     0.015 C 
HETATM   16  C   UNK N   1     144.856 160.974 186.375  0.00  0.00     0.107 A 
HETATM   17  C   UNK N   1     142.411 160.172 187.556  0.00  0.00     0.021 A 
HETATM   18  C   UNK N   1     143.491 159.275 187.535  0.00  0.00    -0.013 A 
HETATM   19  C   UNK N   1     144.724 159.676 186.948  0.00  0.00     0.106 A 
ENDROOT
BRANCH  18  20
HETATM   20  C   UNK N   1     143.301 157.891 188.152  0.00  0.00     0.069 C 
BRANCH  20  21
HETATM   21  C   UNK N   1     142.651 157.977 189.547  0.00  0.00     0.175 C 
BRANCH  21  22
HETATM   22  O   UNK N   1     143.547 157.545 190.537  0.00  0.00    -0.400 OA
HETATM   23  H   UNK N   1     143.005 157.358 191.348  0.00  0.00     0.209 HD
ENDBRANCH  21  22
ENDBRANCH  20  21
BRANCH  20  24
HETATM   24  C   UNK N   1     142.511 156.949 187.220  0.00  0.00     0.175 C 
BRANCH  24  25
HETATM   25  O   UNK N   1     142.996 157.031 185.907  0.00  0.00    -0.400 OA
HETATM   26  H   UNK N   1     142.360 157.603 185.403  0.00  0.00     0.209 HD
ENDBRANCH  24  25
ENDBRANCH  20  24
ENDBRANCH  18  20
BRANCH  19  27
HETATM   27  O   UNK N   1     145.760 158.805 186.956  0.00  0.00    -0.357 OA
HETATM   28  H   UNK N   1     145.681 157.852 186.839  0.00  0.00     0.218 HD
ENDBRANCH  19  27
BRANCH  16  29
HETATM   29  O   UNK N   1     146.000 161.357 185.768  0.00  0.00    -0.357 OA
HETATM   30  H   UNK N   1     146.354 162.254 185.771  0.00  0.00     0.218 HD
ENDBRANCH  16  29
TORSDOF 7
ENDMDL
MODEL 8
REMARK VINA RESULT:      -6.6      8.068     11.381
REMARK  7 active torsions:
REMARK  status: ('A' for Active; 'I' for Inactive)
REMARK    1  A    between atoms: O_3  and  C_20 
REMARK    2  A    between atoms: O_4  and  C_23 
REMARK    3  A    between atoms: O_5  and  C_25 
REMARK    4  A    between atoms: O_6  and  C_26 
REMARK    5  A    between atoms: C_22  and  C_24 
REMARK    6  A    between atoms: C_24  and  C_25 
REMARK    7  A    between atoms: C_24  and  C_26 
ROOT
HETATM    1  O   UNK N   1     153.853 158.631 152.344  0.00  0.00    -0.310 OA
HETATM    2  O   UNK N   1     153.904 156.749 153.582  0.00  0.00    -0.264 OA
HETATM    3  C   UNK N   1     151.554 157.439 151.058  0.00  0.00     0.019 C 
HETATM    4  C   UNK N   1     151.767 157.384 152.628  0.00  0.00     0.083 C 
HETATM    5  C   UNK N   1     151.557 156.045 150.366  0.00  0.00    -0.043 C 
HETATM    6  C   UNK N   1     152.461 158.573 150.435  0.00  0.00     0.044 C 
HETATM    7  C   UNK N   1     151.177 156.083 153.267  0.00  0.00     0.025 C 
HETATM    8  C   UNK N   1     150.438 155.152 151.034  0.00  0.00     0.009 C 
HETATM    9  C   UNK N   1     153.032 159.462 151.581  0.00  0.00     0.166 C 
HETATM   10  C   UNK N   1     151.204 158.762 153.078  0.00  0.00     0.006 A 
HETATM   11  C   UNK N   1     149.983 155.598 152.454  0.00  0.00     0.002 C 
HETATM   12  C   UNK N   1     151.881 159.852 152.492  0.00  0.00    -0.018 A 
HETATM   13  C   UNK N   1     153.263 157.532 152.900  0.00  0.00     0.273 C 
HETATM   14  C   UNK N   1     152.943 155.357 150.489  0.00  0.00     0.015 C 
HETATM   15  C   UNK N   1     151.244 156.184 148.860  0.00  0.00     0.015 C 
HETATM   16  C   UNK N   1     150.129 159.006 153.960  0.00  0.00     0.107 A 
HETATM   17  C   UNK N   1     151.529 161.165 152.778  0.00  0.00     0.021 A 
HETATM   18  C   UNK N   1     150.476 161.433 153.668  0.00  0.00    -0.013 A 
HETATM   19  C   UNK N   1     149.774 160.351 154.270  0.00  0.00     0.106 A 
ENDROOT
BRANCH  18  20
HETATM   20  C   UNK N   1     150.124 162.890 153.963  0.00  0.00     0.069 C 
BRANCH  20  21
HETATM   21  C   UNK N   1     151.188 163.854 153.401  0.00  0.00     0.175 C 
BRANCH  21  22
HETATM   22  O   UNK N   1     150.588 164.838 152.600  0.00  0.00    -0.400 OA
HETATM   23  H   UNK N   1     149.937 164.370 152.015  0.00  0.00     0.209 HD
ENDBRANCH  21  22
ENDBRANCH  20  21
BRANCH  20  24
HETATM   24  C   UNK N   1     148.712 163.253 153.461  0.00  0.00     0.175 C 
BRANCH  24  25
HETATM   25  O   UNK N   1     148.518 162.790 152.152  0.00  0.00    -0.400 OA
HETATM   26  H   UNK N   1     148.653 163.569 151.551  0.00  0.00     0.209 HD
ENDBRANCH  24  25
ENDBRANCH  20  24
ENDBRANCH  18  20
BRANCH  19  27
HETATM   27  O   UNK N   1     148.778 160.629 155.141  0.00  0.00    -0.357 OA
HETATM   28  H   UNK N   1     148.029 160.052 155.327  0.00  0.00     0.218 HD
ENDBRANCH  19  27
BRANCH  16  29
HETATM   29  O   UNK N   1     149.444 157.965 154.479  0.00  0.00    -0.357 OA
HETATM   30  H   UNK N   1     148.997 157.968 155.333  0.00  0.00     0.218 HD
ENDBRANCH  16  29
TORSDOF 7
ENDMDL
MODEL 9
REMARK VINA RESULT:      -6.4     13.015     15.974
REMARK  7 active torsions:
REMARK  status: ('A' for Active; 'I' for Inactive)
REMARK    1  A    between atoms: O_3  and  C_20 
REMARK    2  A    between atoms: O_4  and  C_23 
REMARK    3  A    between atoms: O_5  and  C_25 
REMARK    4  A    between atoms: O_6  and  C_26 
REMARK    5  A    between atoms: C_22  and  C_24 
REMARK    6  A    between atoms: C_24  and  C_25 
REMARK    7  A    between atoms: C_24  and  C_26 
ROOT
HETATM    1  O   UNK N   1     143.423 150.390 155.956  0.00  0.00    -0.310 OA
HETATM    2  O   UNK N   1     141.397 149.983 155.059  0.00  0.00    -0.264 OA
HETATM    3  C   UNK N   1     142.876 153.162 155.340  0.00  0.00     0.019 C 
HETATM    4  C   UNK N   1     141.778 152.202 155.962  0.00  0.00     0.083 C 
HETATM    5  C   UNK N   1     142.525 153.696 153.921  0.00  0.00    -0.043 C 
HETATM    6  C   UNK N   1     144.313 152.545 155.561  0.00  0.00     0.044 C 
HETATM    7  C   UNK N   1     140.330 152.564 155.489  0.00  0.00     0.025 C 
HETATM    8  C   UNK N   1     141.134 154.439 153.994  0.00  0.00     0.009 C 
HETATM    9  C   UNK N   1     144.214 151.362 156.572  0.00  0.00     0.166 C 
HETATM   10  C   UNK N   1     142.111 152.271 157.478  0.00  0.00     0.006 A 
HETATM   11  C   UNK N   1     140.232 154.058 155.204  0.00  0.00     0.002 C 
HETATM   12  C   UNK N   1     143.420 151.837 157.776  0.00  0.00    -0.018 A 
HETATM   13  C   UNK N   1     142.159 150.767 155.603  0.00  0.00     0.273 C 
HETATM   14  C   UNK N   1     142.468 152.542 152.883  0.00  0.00     0.015 C 
HETATM   15  C   UNK N   1     143.596 154.698 153.436  0.00  0.00     0.015 C 
HETATM   16  C   UNK N   1     141.274 152.715 158.524  0.00  0.00     0.107 A 
HETATM   17  C   UNK N   1     143.900 151.817 159.079  0.00  0.00     0.021 A 
HETATM   18  C   UNK N   1     143.079 152.235 160.138  0.00  0.00    -0.013 A 
HETATM   19  C   UNK N   1     141.755 152.681 159.865  0.00  0.00     0.106 A 
ENDROOT
BRANCH  18  20
HETATM   20  C   UNK N   1     143.640 152.190 161.558  0.00  0.00     0.069 C 
BRANCH  20  21
HETATM   21  C   UNK N   1     144.807 151.188 161.674  0.00  0.00     0.175 C 
BRANCH  21  22
HETATM   22  O   UNK N   1     144.695 150.434 162.852  0.00  0.00    -0.400 OA
HETATM   23  H   UNK N   1     144.843 151.063 163.606  0.00  0.00     0.209 HD
ENDBRANCH  21  22
ENDBRANCH  20  21
BRANCH  20  24
HETATM   24  C   UNK N   1     144.049 153.590 162.060  0.00  0.00     0.175 C 
BRANCH  24  25
HETATM   25  O   UNK N   1     144.782 153.495 163.251  0.00  0.00    -0.400 OA
HETATM   26  H   UNK N   1     145.740 153.575 163.003  0.00  0.00     0.209 HD
ENDBRANCH  24  25
ENDBRANCH  20  24
ENDBRANCH  18  20
BRANCH  19  27
HETATM   27  O   UNK N   1     140.972 153.059 160.901  0.00  0.00    -0.357 OA
HETATM   28  H   UNK N   1     140.983 153.930 161.313  0.00  0.00     0.218 HD
ENDBRANCH  19  27
BRANCH  16  29
HETATM   29  O   UNK N   1     140.040 153.183 158.236  0.00  0.00    -0.357 OA
HETATM   30  H   UNK N   1     139.825 154.107 158.063  0.00  0.00     0.218 HD
ENDBRANCH  16  29
TORSDOF 7
ENDMDL
