MODEL 1
REMARK VINA RESULT:      -7.9      0.000      0.000
REMARK  4 active torsions:
REMARK  status: ('A' for Active; 'I' for Inactive)
REMARK    1  A    between atoms: O_2  and  C_9 
REMARK    2  A    between atoms: O_4  and  C_19 
REMARK    3  A    between atoms: O_5  and  C_22 
REMARK    4  A    between atoms: C_21  and  C_23 
ROOT
HETATM    1  O   UNK N   1     152.237 152.456 145.490  0.00  0.00    -0.308 OA
HETATM    2  O   UNK N   1     150.626 153.563 146.619  0.00  0.00    -0.264 OA
HETATM    3  C   UNK N   1     151.191 150.144 146.800  0.00  0.00     0.048 C 
HETATM    4  C   UNK N   1     150.235 151.227 146.139  0.00  0.00     0.085 C 
HETATM    5  C   UNK N   1     151.261 150.180 148.384  0.00  0.00    -0.040 C 
HETATM    6  C   UNK N   1     152.615 150.185 146.092  0.00  0.00     0.158 C 
HETATM    7  C   UNK N   1     148.882 151.277 146.887  0.00  0.00     0.025 C 
HETATM    8  C   UNK N   1     149.811 150.183 148.937  0.00  0.00     0.009 C 
HETATM    9  C   UNK N   1     152.586 151.221 144.933  0.00  0.00     0.194 C 
HETATM   10  C   UNK N   1     150.165 150.855 144.618  0.00  0.00     0.006 A 
HETATM   11  C   UNK N   1     148.998 151.370 148.405  0.00  0.00     0.002 C 
HETATM   12  C   UNK N   1     151.445 150.828 144.018  0.00  0.00    -0.015 A 
HETATM   13  C   UNK N   1     151.031 152.521 146.131  0.00  0.00     0.273 C 
HETATM   14  C   UNK N   1     151.963 148.908 148.911  0.00  0.00     0.015 C 
HETATM   15  C   UNK N   1     152.028 151.399 148.973  0.00  0.00     0.015 C 
HETATM   16  C   UNK N   1     149.031 150.544 143.794  0.00  0.00     0.107 A 
HETATM   17  C   UNK N   1     151.627 150.494 142.678  0.00  0.00     0.021 A 
HETATM   18  C   UNK N   1     150.527 150.152 141.879  0.00  0.00    -0.018 A 
HETATM   19  C   UNK N   1     149.230 150.174 142.445  0.00  0.00     0.106 A 
ENDROOT
BRANCH  18  20
HETATM   20  C   UNK N   1     150.757 149.787 140.415  0.00  0.00     0.013 C 
HETATM   21  C   UNK N   1     151.913 148.786 140.265  0.00  0.00     0.015 C 
HETATM   22  C   UNK N   1     150.984 151.033 139.544  0.00  0.00     0.015 C 
ENDBRANCH  18  20
BRANCH  19  23
HETATM   23  O   UNK N   1     148.166 149.851 141.676  0.00  0.00    -0.357 OA
HETATM   24  H   UNK N   1     147.685 149.016 141.759  0.00  0.00     0.218 HD
ENDBRANCH  19  23
BRANCH  16  25
HETATM   25  O   UNK N   1     147.746 150.596 144.210  0.00  0.00    -0.357 OA
HETATM   26  H   UNK N   1     146.967 150.339 143.723  0.00  0.00     0.218 HD
ENDBRANCH  16  25
BRANCH   6  27
HETATM   27  O   UNK N   1     152.968 148.919 145.594  0.00  0.00    -0.392 OA
HETATM   28  H   UNK N   1     152.312 148.272 145.960  0.00  0.00     0.210 HD
ENDBRANCH   6  27
TORSDOF 4
ENDMDL
MODEL 2
REMARK VINA RESULT:      -7.7     38.512     42.054
REMARK  4 active torsions:
REMARK  status: ('A' for Active; 'I' for Inactive)
REMARK    1  A    between atoms: O_2  and  C_9 
REMARK    2  A    between atoms: O_4  and  C_19 
REMARK    3  A    between atoms: O_5  and  C_22 
REMARK    4  A    between atoms: C_21  and  C_23 
ROOT
HETATM    1  O   UNK N   1     130.307 164.437 179.438  0.00  0.00    -0.308 OA
HETATM    2  O   UNK N   1     130.131 165.883 181.163  0.00  0.00    -0.264 OA
HETATM    3  C   UNK N   1     128.050 165.835 178.386  0.00  0.00     0.048 C 
HETATM    4  C   UNK N   1     129.284 166.609 179.018  0.00  0.00     0.085 C 
HETATM    5  C   UNK N   1     126.747 165.786 179.290  0.00  0.00    -0.040 C 
HETATM    6  C   UNK N   1     128.524 164.410 177.862  0.00  0.00     0.158 C 
HETATM    7  C   UNK N   1     128.820 167.951 179.632  0.00  0.00     0.025 C 
HETATM    8  C   UNK N   1     126.428 167.227 179.767  0.00  0.00     0.009 C 
HETATM    9  C   UNK N   1     130.057 164.267 178.072  0.00  0.00     0.194 C 
HETATM   10  C   UNK N   1     130.350 166.710 177.873  0.00  0.00     0.006 A 
HETATM   11  C   UNK N   1     127.599 167.846 180.541  0.00  0.00     0.002 C 
HETATM   12  C   UNK N   1     130.711 165.439 177.370  0.00  0.00    -0.015 A 
HETATM   13  C   UNK N   1     129.925 165.630 179.987  0.00  0.00     0.273 C 
HETATM   14  C   UNK N   1     125.544 165.287 178.457  0.00  0.00     0.015 C 
HETATM   15  C   UNK N   1     126.854 164.855 180.533  0.00  0.00     0.015 C 
HETATM   16  C   UNK N   1     130.971 167.864 177.289  0.00  0.00     0.107 A 
HETATM   17  C   UNK N   1     131.622 165.288 176.328  0.00  0.00     0.021 A 
HETATM   18  C   UNK N   1     132.203 166.413 175.728  0.00  0.00    -0.018 A 
HETATM   19  C   UNK N   1     131.870 167.701 176.210  0.00  0.00     0.106 A 
ENDROOT
BRANCH  18  20
HETATM   20  C   UNK N   1     133.197 166.218 174.586  0.00  0.00     0.013 C 
HETATM   21  C   UNK N   1     132.472 166.035 173.242  0.00  0.00     0.015 C 
HETATM   22  C   UNK N   1     134.161 165.054 174.860  0.00  0.00     0.015 C 
ENDBRANCH  18  20
BRANCH  19  23
HETATM   23  O   UNK N   1     132.432 168.790 175.638  0.00  0.00    -0.357 OA
HETATM   24  H   UNK N   1     132.347 169.683 175.999  0.00  0.00     0.218 HD
ENDBRANCH  19  23
BRANCH  16  25
HETATM   25  O   UNK N   1     130.776 169.134 177.710  0.00  0.00    -0.357 OA
HETATM   26  H   UNK N   1     131.430 169.740 178.050  0.00  0.00     0.218 HD
ENDBRANCH  16  25
BRANCH   6  27
HETATM   27  O   UNK N   1     128.209 164.241 176.504  0.00  0.00    -0.392 OA
HETATM   28  H   UNK N   1     128.319 165.125 176.069  0.00  0.00     0.210 HD
ENDBRANCH   6  27
TORSDOF 4
ENDMDL
MODEL 3
REMARK VINA RESULT:      -6.9     24.110     27.645
REMARK  4 active torsions:
REMARK  status: ('A' for Active; 'I' for Inactive)
REMARK    1  A    between atoms: O_2  and  C_9 
REMARK    2  A    between atoms: O_4  and  C_19 
REMARK    3  A    between atoms: O_5  and  C_22 
REMARK    4  A    between atoms: C_21  and  C_23 
ROOT
HETATM    1  O   UNK N   1     136.831 149.708 121.924  0.00  0.00    -0.308 OA
HETATM    2  O   UNK N   1     137.209 149.056 124.052  0.00  0.00    -0.264 OA
HETATM    3  C   UNK N   1     139.333 148.446 121.376  0.00  0.00     0.048 C 
HETATM    4  C   UNK N   1     138.239 147.753 122.295  0.00  0.00     0.085 C 
HETATM    5  C   UNK N   1     140.578 149.056 122.148  0.00  0.00    -0.040 C 
HETATM    6  C   UNK N   1     138.628 149.468 120.382  0.00  0.00     0.158 C 
HETATM    7  C   UNK N   1     138.917 146.838 123.342  0.00  0.00     0.025 C 
HETATM    8  C   UNK N   1     141.135 147.974 123.110  0.00  0.00     0.009 C 
HETATM    9  C   UNK N   1     137.088 149.403 120.582  0.00  0.00     0.194 C 
HETATM   10  C   UNK N   1     137.244 147.049 121.309  0.00  0.00     0.006 A 
HETATM   11  C   UNK N   1     140.070 147.487 124.101  0.00  0.00     0.002 C 
HETATM   12  C   UNK N   1     136.677 147.958 120.387  0.00  0.00    -0.015 A 
HETATM   13  C   UNK N   1     137.403 148.890 122.858  0.00  0.00     0.273 C 
HETATM   14  C   UNK N   1     141.697 149.417 121.145  0.00  0.00     0.015 C 
HETATM   15  C   UNK N   1     140.266 150.344 122.964  0.00  0.00     0.015 C 
HETATM   16  C   UNK N   1     136.858 145.669 121.215  0.00  0.00     0.107 A 
HETATM   17  C   UNK N   1     135.786 147.549 119.398  0.00  0.00     0.021 A 
HETATM   18  C   UNK N   1     135.436 146.198 119.277  0.00  0.00    -0.018 A 
HETATM   19  C   UNK N   1     135.980 145.260 120.187  0.00  0.00     0.106 A 
ENDROOT
BRANCH  18  20
HETATM   20  C   UNK N   1     134.459 145.777 118.182  0.00  0.00     0.013 C 
HETATM   21  C   UNK N   1     135.162 145.672 116.819  0.00  0.00     0.015 C 
HETATM   22  C   UNK N   1     133.244 146.715 118.109  0.00  0.00     0.015 C 
ENDBRANCH  18  20
BRANCH  19  23
HETATM   23  O   UNK N   1     135.640 143.956 120.078  0.00  0.00    -0.357 OA
HETATM   24  H   UNK N   1     134.840 143.581 120.472  0.00  0.00     0.218 HD
ENDBRANCH  19  23
BRANCH  16  25
HETATM   25  O   UNK N   1     137.265 144.701 122.067  0.00  0.00    -0.357 OA
HETATM   26  H   UNK N   1     138.147 144.551 122.397  0.00  0.00     0.218 HD
ENDBRANCH  16  25
BRANCH   6  27
HETATM   27  O   UNK N   1     138.950 149.177 119.046  0.00  0.00    -0.392 OA
HETATM   28  H   UNK N   1     138.255 148.555 118.710  0.00  0.00     0.210 HD
ENDBRANCH   6  27
TORSDOF 4
ENDMDL
MODEL 4
REMARK VINA RESULT:      -6.8     39.305     41.695
REMARK  4 active torsions:
REMARK  status: ('A' for Active; 'I' for Inactive)
REMARK    1  A    between atoms: O_2  and  C_9 
REMARK    2  A    between atoms: O_4  and  C_19 
REMARK    3  A    between atoms: O_5  and  C_22 
REMARK    4  A    between atoms: C_21  and  C_23 
ROOT
HETATM    1  O   UNK N   1     130.371 165.775 180.789  0.00  0.00    -0.308 OA
HETATM    2  O   UNK N   1     128.385 166.110 179.769  0.00  0.00    -0.264 OA
HETATM    3  C   UNK N   1     130.247 163.187 179.589  0.00  0.00     0.048 C 
HETATM    4  C   UNK N   1     129.885 164.498 178.771  0.00  0.00     0.085 C 
HETATM    5  C   UNK N   1     129.007 162.301 180.030  0.00  0.00    -0.040 C 
HETATM    6  C   UNK N   1     131.231 163.556 180.784  0.00  0.00     0.158 C 
HETATM    7  C   UNK N   1     128.843 164.177 177.673  0.00  0.00     0.025 C 
HETATM    8  C   UNK N   1     128.112 162.058 178.786  0.00  0.00     0.009 C 
HETATM    9  C   UNK N   1     131.578 165.070 180.717  0.00  0.00     0.194 C 
HETATM   10  C   UNK N   1     131.254 165.074 178.269  0.00  0.00     0.006 A 
HETATM   11  C   UNK N   1     127.639 163.373 178.156  0.00  0.00     0.002 C 
HETATM   12  C   UNK N   1     132.144 165.333 179.337  0.00  0.00    -0.015 A 
HETATM   13  C   UNK N   1     129.452 165.519 179.809  0.00  0.00     0.273 C 
HETATM   14  C   UNK N   1     129.494 160.924 180.537  0.00  0.00     0.015 C 
HETATM   15  C   UNK N   1     128.137 162.919 181.163  0.00  0.00     0.015 C 
HETATM   16  C   UNK N   1     131.707 165.351 176.936  0.00  0.00     0.107 A 
HETATM   17  C   UNK N   1     133.431 165.822 179.125  0.00  0.00     0.021 A 
HETATM   18  C   UNK N   1     133.892 166.057 177.823  0.00  0.00    -0.018 A 
HETATM   19  C   UNK N   1     133.026 165.815 176.730  0.00  0.00     0.106 A 
ENDROOT
BRANCH  18  20
HETATM   20  C   UNK N   1     135.307 166.591 177.620  0.00  0.00     0.013 C 
HETATM   21  C   UNK N   1     136.178 166.347 178.863  0.00  0.00     0.015 C 
HETATM   22  C   UNK N   1     135.308 168.075 177.224  0.00  0.00     0.015 C 
ENDBRANCH  18  20
BRANCH  19  23
HETATM   23  O   UNK N   1     133.464 166.046 175.472  0.00  0.00    -0.357 OA
HETATM   24  H   UNK N   1     133.858 165.363 174.913  0.00  0.00     0.218 HD
ENDBRANCH  19  23
BRANCH  16  25
HETATM   25  O   UNK N   1     130.946 165.217 175.826  0.00  0.00    -0.357 OA
HETATM   26  H   UNK N   1     130.935 164.485 175.214  0.00  0.00     0.218 HD
ENDBRANCH  16  25
BRANCH   6  27
HETATM   27  O   UNK N   1     132.408 162.792 180.723  0.00  0.00    -0.392 OA
HETATM   28  H   UNK N   1     133.167 163.427 180.777  0.00  0.00     0.210 HD
ENDBRANCH   6  27
TORSDOF 4
ENDMDL
MODEL 5
REMARK VINA RESULT:      -6.7      9.395     12.628
REMARK  4 active torsions:
REMARK  status: ('A' for Active; 'I' for Inactive)
REMARK    1  A    between atoms: O_2  and  C_9 
REMARK    2  A    between atoms: O_4  and  C_19 
REMARK    3  A    between atoms: O_5  and  C_22 
REMARK    4  A    between atoms: C_21  and  C_23 
ROOT
HETATM    1  O   UNK N   1     152.215 158.377 154.440  0.00  0.00    -0.308 OA
HETATM    2  O   UNK N   1     150.578 156.967 155.094  0.00  0.00    -0.264 OA
HETATM    3  C   UNK N   1     151.346 157.730 151.797  0.00  0.00     0.048 C 
HETATM    4  C   UNK N   1     150.309 158.057 152.954  0.00  0.00     0.085 C 
HETATM    5  C   UNK N   1     151.464 156.196 151.408  0.00  0.00    -0.040 C 
HETATM    6  C   UNK N   1     152.743 158.420 152.119  0.00  0.00     0.158 C 
HETATM    7  C   UNK N   1     148.980 157.305 152.714  0.00  0.00     0.025 C 
HETATM    8  C   UNK N   1     150.034 155.643 151.168  0.00  0.00     0.009 C 
HETATM    9  C   UNK N   1     152.617 159.253 153.426  0.00  0.00     0.194 C 
HETATM   10  C   UNK N   1     150.213 159.622 153.004  0.00  0.00     0.006 A 
HETATM   11  C   UNK N   1     149.138 155.820 152.400  0.00  0.00     0.002 C 
HETATM   12  C   UNK N   1     151.473 160.224 153.222  0.00  0.00    -0.015 A 
HETATM   13  C   UNK N   1     151.028 157.725 154.251  0.00  0.00     0.273 C 
HETATM   14  C   UNK N   1     152.255 156.045 150.089  0.00  0.00     0.015 C 
HETATM   15  C   UNK N   1     152.177 155.310 152.469  0.00  0.00     0.015 C 
HETATM   16  C   UNK N   1     149.074 160.483 152.855  0.00  0.00     0.107 A 
HETATM   17  C   UNK N   1     151.632 161.607 153.275  0.00  0.00     0.021 A 
HETATM   18  C   UNK N   1     150.530 162.453 153.092  0.00  0.00    -0.018 A 
HETATM   19  C   UNK N   1     149.252 161.884 152.877  0.00  0.00     0.106 A 
ENDROOT
BRANCH  18  20
HETATM   20  C   UNK N   1     150.734 163.964 153.152  0.00  0.00     0.013 C 
HETATM   21  C   UNK N   1     152.155 164.353 152.712  0.00  0.00     0.015 C 
HETATM   22  C   UNK N   1     150.409 164.530 154.542  0.00  0.00     0.015 C 
ENDBRANCH  18  20
BRANCH  19  23
HETATM   23  O   UNK N   1     148.185 162.696 152.705  0.00  0.00    -0.357 OA
HETATM   24  H   UNK N   1     147.877 163.318 153.378  0.00  0.00     0.218 HD
ENDBRANCH  19  23
BRANCH  16  25
HETATM   25  O   UNK N   1     147.802 160.049 152.709  0.00  0.00    -0.357 OA
HETATM   26  H   UNK N   1     147.487 159.149 152.743  0.00  0.00     0.218 HD
ENDBRANCH  16  25
BRANCH   6  27
HETATM   27  O   UNK N   1     153.153 159.248 151.061  0.00  0.00    -0.392 OA
HETATM   28  H   UNK N   1     153.253 158.668 150.263  0.00  0.00     0.210 HD
ENDBRANCH   6  27
TORSDOF 4
ENDMDL
MODEL 6
REMARK VINA RESULT:      -6.6     40.055     42.023
REMARK  4 active torsions:
REMARK  status: ('A' for Active; 'I' for Inactive)
REMARK    1  A    between atoms: O_2  and  C_9 
REMARK    2  A    between atoms: O_4  and  C_19 
REMARK    3  A    between atoms: O_5  and  C_22 
REMARK    4  A    between atoms: C_21  and  C_23 
ROOT
HETATM    1  O   UNK N   1     134.937 166.365 180.271  0.00  0.00    -0.308 OA
HETATM    2  O   UNK N   1     136.595 166.177 178.751  0.00  0.00    -0.264 OA
HETATM    3  C   UNK N   1     135.274 169.175 179.894  0.00  0.00     0.048 C 
HETATM    4  C   UNK N   1     135.234 168.173 178.664  0.00  0.00     0.085 C 
HETATM    5  C   UNK N   1     136.712 169.735 180.264  0.00  0.00    -0.040 C 
HETATM    6  C   UNK N   1     134.494 168.541 181.127  0.00  0.00     0.158 C 
HETATM    7  C   UNK N   1     136.080 168.725 177.492  0.00  0.00     0.025 C 
HETATM    8  C   UNK N   1     137.373 170.277 178.970  0.00  0.00     0.009 C 
HETATM    9  C   UNK N   1     133.882 167.176 180.703  0.00  0.00     0.194 C 
HETATM   10  C   UNK N   1     133.714 167.937 178.360  0.00  0.00     0.006 A 
HETATM   11  C   UNK N   1     137.477 169.197 177.885  0.00  0.00     0.002 C 
HETATM   12  C   UNK N   1     133.019 167.438 179.486  0.00  0.00    -0.015 A 
HETATM   13  C   UNK N   1     135.676 166.829 179.219  0.00  0.00     0.273 C 
HETATM   14  C   UNK N   1     136.580 170.914 181.256  0.00  0.00     0.015 C 
HETATM   15  C   UNK N   1     137.664 168.695 180.920  0.00  0.00     0.015 C 
HETATM   16  C   UNK N   1     132.967 168.159 177.155  0.00  0.00     0.107 A 
HETATM   17  C   UNK N   1     131.651 167.181 179.456  0.00  0.00     0.021 A 
HETATM   18  C   UNK N   1     130.910 167.432 178.293  0.00  0.00    -0.018 A 
HETATM   19  C   UNK N   1     131.573 167.927 177.146  0.00  0.00     0.106 A 
ENDROOT
BRANCH  18  20
HETATM   20  C   UNK N   1     129.411 167.144 178.290  0.00  0.00     0.013 C 
HETATM   21  C   UNK N   1     128.742 167.655 179.577  0.00  0.00     0.015 C 
HETATM   22  C   UNK N   1     129.116 165.653 178.065  0.00  0.00     0.015 C 
ENDBRANCH  18  20
BRANCH  19  23
HETATM   23  O   UNK N   1     130.864 168.165 176.020  0.00  0.00    -0.357 OA
HETATM   24  H   UNK N   1     130.987 168.952 175.471  0.00  0.00     0.218 HD
ENDBRANCH  19  23
BRANCH  16  25
HETATM   25  O   UNK N   1     133.507 168.568 175.985  0.00  0.00    -0.357 OA
HETATM   26  H   UNK N   1     133.047 168.888 175.213  0.00  0.00     0.218 HD
ENDBRANCH  16  25
BRANCH   6  27
HETATM   27  O   UNK N   1     133.480 169.400 181.580  0.00  0.00    -0.392 OA
HETATM   28  H   UNK N   1     133.083 169.827 180.777  0.00  0.00     0.210 HD
ENDBRANCH   6  27
TORSDOF 4
ENDMDL
MODEL 7
REMARK VINA RESULT:      -6.6     31.582     35.608
REMARK  4 active torsions:
REMARK  status: ('A' for Active; 'I' for Inactive)
REMARK    1  A    between atoms: O_2  and  C_9 
REMARK    2  A    between atoms: O_4  and  C_19 
REMARK    3  A    between atoms: O_5  and  C_22 
REMARK    4  A    between atoms: C_21  and  C_23 
ROOT
HETATM    1  O   UNK N   1     167.874 148.919 112.093  0.00  0.00    -0.308 OA
HETATM    2  O   UNK N   1     166.317 149.873 110.765  0.00  0.00    -0.264 OA
HETATM    3  C   UNK N   1     168.443 151.599 112.896  0.00  0.00     0.048 C 
HETATM    4  C   UNK N   1     166.951 151.072 112.766  0.00  0.00     0.085 C 
HETATM    5  C   UNK N   1     168.925 152.563 111.731  0.00  0.00    -0.040 C 
HETATM    6  C   UNK N   1     169.422 150.375 113.164  0.00  0.00     0.158 C 
HETATM    7  C   UNK N   1     166.000 152.234 112.396  0.00  0.00     0.025 C 
HETATM    8  C   UNK N   1     167.860 153.677 111.547  0.00  0.00     0.009 C 
HETATM    9  C   UNK N   1     168.591 149.067 113.285  0.00  0.00     0.194 C 
HETATM   10  C   UNK N   1     166.644 150.337 114.116  0.00  0.00     0.006 A 
HETATM   11  C   UNK N   1     166.475 153.099 111.232  0.00  0.00     0.002 C 
HETATM   12  C   UNK N   1     167.564 149.295 114.375  0.00  0.00    -0.015 A 
HETATM   13  C   UNK N   1     167.010 149.928 111.768  0.00  0.00     0.273 C 
HETATM   14  C   UNK N   1     170.256 153.243 112.124  0.00  0.00     0.015 C 
HETATM   15  C   UNK N   1     169.160 151.859 110.364  0.00  0.00     0.015 C 
HETATM   16  C   UNK N   1     165.610 150.574 115.083  0.00  0.00     0.107 A 
HETATM   17  C   UNK N   1     167.501 148.523 115.533  0.00  0.00     0.021 A 
HETATM   18  C   UNK N   1     166.517 148.776 116.498  0.00  0.00    -0.018 A 
HETATM   19  C   UNK N   1     165.576 149.808 116.270  0.00  0.00     0.106 A 
ENDROOT
BRANCH  18  20
HETATM   20  C   UNK N   1     166.474 147.917 117.759  0.00  0.00     0.013 C 
HETATM   21  C   UNK N   1     167.791 148.016 118.546  0.00  0.00     0.015 C 
HETATM   22  C   UNK N   1     166.124 146.455 117.443  0.00  0.00     0.015 C 
ENDBRANCH  18  20
BRANCH  19  23
HETATM   23  O   UNK N   1     164.621 150.052 117.196  0.00  0.00    -0.357 OA
HETATM   24  H   UNK N   1     163.952 150.743 117.099  0.00  0.00     0.218 HD
ENDBRANCH  19  23
BRANCH  16  25
HETATM   25  O   UNK N   1     164.623 151.488 114.939  0.00  0.00    -0.357 OA
HETATM   26  H   UNK N   1     163.747 151.346 114.591  0.00  0.00     0.218 HD
ENDBRANCH  16  25
BRANCH   6  27
HETATM   27  O   UNK N   1     170.173 150.575 114.335  0.00  0.00    -0.392 OA
HETATM   28  H   UNK N   1     170.200 151.552 114.497  0.00  0.00     0.210 HD
ENDBRANCH   6  27
TORSDOF 4
ENDMDL
MODEL 8
REMARK VINA RESULT:      -6.6     11.564     15.781
REMARK  4 active torsions:
REMARK  status: ('A' for Active; 'I' for Inactive)
REMARK    1  A    between atoms: O_2  and  C_9 
REMARK    2  A    between atoms: O_4  and  C_19 
REMARK    3  A    between atoms: O_5  and  C_22 
REMARK    4  A    between atoms: C_21  and  C_23 
ROOT
HETATM    1  O   UNK N   1     144.017 154.175 156.558  0.00  0.00    -0.308 OA
HETATM    2  O   UNK N   1     145.801 153.509 155.344  0.00  0.00    -0.264 OA
HETATM    3  C   UNK N   1     142.982 151.581 155.961  0.00  0.00     0.048 C 
HETATM    4  C   UNK N   1     144.488 151.788 156.419  0.00  0.00     0.085 C 
HETATM    5  C   UNK N   1     142.780 151.277 154.417  0.00  0.00    -0.040 C 
HETATM    6  C   UNK N   1     142.088 152.782 156.502  0.00  0.00     0.158 C 
HETATM    7  C   UNK N   1     145.390 150.689 155.810  0.00  0.00     0.025 C 
HETATM    8  C   UNK N   1     143.739 150.126 154.016  0.00  0.00     0.009 C 
HETATM    9  C   UNK N   1     142.966 153.728 157.368  0.00  0.00     0.194 C 
HETATM   10  C   UNK N   1     144.447 151.852 157.985  0.00  0.00     0.006 A 
HETATM   11  C   UNK N   1     145.204 150.472 154.312  0.00  0.00     0.002 C 
HETATM   12  C   UNK N   1     143.596 152.879 158.452  0.00  0.00    -0.015 A 
HETATM   13  C   UNK N   1     144.838 153.215 156.035  0.00  0.00     0.273 C 
HETATM   14  C   UNK N   1     141.333 150.798 154.157  0.00  0.00     0.015 C 
HETATM   15  C   UNK N   1     143.031 152.492 153.478  0.00  0.00     0.015 C 
HETATM   16  C   UNK N   1     145.118 151.041 158.961  0.00  0.00     0.107 A 
HETATM   17  C   UNK N   1     143.383 153.104 159.811  0.00  0.00     0.021 A 
HETATM   18  C   UNK N   1     144.005 152.290 160.767  0.00  0.00    -0.018 A 
HETATM   19  C   UNK N   1     144.869 151.255 160.336  0.00  0.00     0.106 A 
ENDROOT
BRANCH  18  20
HETATM   20  C   UNK N   1     143.752 152.556 162.248  0.00  0.00     0.013 C 
HETATM   21  C   UNK N   1     142.291 152.962 162.500  0.00  0.00     0.015 C 
HETATM   22  C   UNK N   1     144.725 153.602 162.815  0.00  0.00     0.015 C 
ENDBRANCH  18  20
BRANCH  19  23
HETATM   23  O   UNK N   1     145.477 150.471 161.255  0.00  0.00    -0.357 OA
HETATM   24  H   UNK N   1     145.353 149.513 161.301  0.00  0.00     0.218 HD
ENDBRANCH  19  23
BRANCH  16  25
HETATM   25  O   UNK N   1     146.011 150.069 158.665  0.00  0.00    -0.357 OA
HETATM   26  H   UNK N   1     145.930 149.135 158.837  0.00  0.00     0.218 HD
ENDBRANCH  16  25
BRANCH   6  27
HETATM   27  O   UNK N   1     141.007 152.304 157.261  0.00  0.00    -0.392 OA
HETATM   28  H   UNK N   1     140.555 153.096 157.650  0.00  0.00     0.210 HD
ENDBRANCH   6  27
TORSDOF 4
ENDMDL
MODEL 9
REMARK VINA RESULT:      -6.6     10.129     14.011
REMARK  4 active torsions:
REMARK  status: ('A' for Active; 'I' for Inactive)
REMARK    1  A    between atoms: O_2  and  C_9 
REMARK    2  A    between atoms: O_4  and  C_19 
REMARK    3  A    between atoms: O_5  and  C_22 
REMARK    4  A    between atoms: C_21  and  C_23 
ROOT
HETATM    1  O   UNK N   1     152.599 161.040 153.009  0.00  0.00    -0.308 OA
HETATM    2  O   UNK N   1     154.502 159.871 153.336  0.00  0.00    -0.264 OA
HETATM    3  C   UNK N   1     151.451 158.492 152.422  0.00  0.00     0.048 C 
HETATM    4  C   UNK N   1     152.413 158.701 153.668  0.00  0.00     0.085 C 
HETATM    5  C   UNK N   1     152.097 157.731 151.189  0.00  0.00    -0.040 C 
HETATM    6  C   UNK N   1     150.765 159.874 152.038  0.00  0.00     0.158 C 
HETATM    7  C   UNK N   1     153.172 157.392 153.988  0.00  0.00     0.025 C 
HETATM    8  C   UNK N   1     152.767 156.433 151.712  0.00  0.00     0.009 C 
HETATM    9  C   UNK N   1     151.202 160.967 153.053  0.00  0.00     0.194 C 
HETATM   10  C   UNK N   1     151.502 159.263 154.814  0.00  0.00     0.006 A 
HETATM   11  C   UNK N   1     153.827 156.726 152.781  0.00  0.00     0.002 C 
HETATM   12  C   UNK N   1     150.845 160.455 154.434  0.00  0.00    -0.015 A 
HETATM   13  C   UNK N   1     153.282 159.896 153.315  0.00  0.00     0.273 C 
HETATM   14  C   UNK N   1     150.996 157.322 150.184  0.00  0.00     0.015 C 
HETATM   15  C   UNK N   1     153.150 158.558 150.396  0.00  0.00     0.015 C 
HETATM   16  C   UNK N   1     151.250 158.749 156.130  0.00  0.00     0.107 A 
HETATM   17  C   UNK N   1     149.962 161.117 155.284  0.00  0.00     0.021 A 
HETATM   18  C   UNK N   1     149.684 160.599 156.556  0.00  0.00    -0.018 A 
HETATM   19  C   UNK N   1     150.328 159.410 156.973  0.00  0.00     0.106 A 
ENDROOT
BRANCH  18  20
HETATM   20  C   UNK N   1     148.710 161.343 157.465  0.00  0.00     0.013 C 
HETATM   21  C   UNK N   1     147.552 161.955 156.660  0.00  0.00     0.015 C 
HETATM   22  C   UNK N   1     149.421 162.408 158.314  0.00  0.00     0.015 C 
ENDBRANCH  18  20
BRANCH  19  23
HETATM   23  O   UNK N   1     150.067 158.909 158.201  0.00  0.00    -0.357 OA
HETATM   24  H   UNK N   1     149.355 159.236 158.767  0.00  0.00     0.218 HD
ENDBRANCH  19  23
BRANCH  16  25
HETATM   25  O   UNK N   1     151.857 157.660 156.655  0.00  0.00    -0.357 OA
HETATM   26  H   UNK N   1     152.680 157.629 157.136  0.00  0.00     0.218 HD
ENDBRANCH  16  25
BRANCH   6  27
HETATM   27  O   UNK N   1     149.365 159.759 152.031  0.00  0.00    -0.392 OA
HETATM   28  H   UNK N   1     149.152 158.809 152.221  0.00  0.00     0.210 HD
ENDBRANCH   6  27
TORSDOF 4
ENDMDL
