MODEL 1
REMARK VINA RESULT:      -6.8      0.000      0.000
REMARK  4 active torsions:
REMARK  status: ('A' for Active; 'I' for Inactive)
REMARK    1  A    between atoms: O_2  and  C_9 
REMARK    2  A    between atoms: O_4  and  C_19 
REMARK    3  A    between atoms: O_5  and  C_22 
REMARK    4  A    between atoms: C_21  and  C_23 
ROOT
HETATM    1  O   UNK N   1     143.438 150.649 157.065  0.00  0.00    -0.308 OA
HETATM    2  O   UNK N   1     141.352 150.293 156.289  0.00  0.00    -0.264 OA
HETATM    3  C   UNK N   1     142.839 153.446 156.647  0.00  0.00     0.048 C 
HETATM    4  C   UNK N   1     141.796 152.447 157.305  0.00  0.00     0.085 C 
HETATM    5  C   UNK N   1     142.335 154.106 155.320  0.00  0.00    -0.040 C 
HETATM    6  C   UNK N   1     144.307 152.832 156.738  0.00  0.00     0.158 C 
HETATM    7  C   UNK N   1     140.310 152.824 156.988  0.00  0.00     0.025 C 
HETATM    8  C   UNK N   1     140.972 154.847 155.617  0.00  0.00     0.009 C 
HETATM    9  C   UNK N   1     144.272 151.584 157.680  0.00  0.00     0.194 C 
HETATM   10  C   UNK N   1     142.245 152.424 158.795  0.00  0.00     0.006 A 
HETATM   11  C   UNK N   1     140.180 154.335 156.853  0.00  0.00     0.002 C 
HETATM   12  C   UNK N   1     143.572 151.980 158.966  0.00  0.00    -0.015 A 
HETATM   13  C   UNK N   1     142.151 151.042 156.826  0.00  0.00     0.273 C 
HETATM   14  C   UNK N   1     143.348 155.154 154.803  0.00  0.00     0.015 C 
HETATM   15  C   UNK N   1     142.127 153.061 154.186  0.00  0.00     0.015 C 
HETATM   16  C   UNK N   1     141.491 152.796 159.932  0.00  0.00     0.107 A 
HETATM   17  C   UNK N   1     144.154 151.884 160.226  0.00  0.00     0.021 A 
HETATM   18  C   UNK N   1     143.414 152.232 161.369  0.00  0.00    -0.018 A 
HETATM   19  C   UNK N   1     142.076 152.683 161.227  0.00  0.00     0.106 A 
ENDROOT
BRANCH  18  20
HETATM   20  C   UNK N   1     144.050 152.121 162.753  0.00  0.00     0.013 C 
HETATM   21  C   UNK N   1     144.962 153.321 163.035  0.00  0.00     0.015 C 
HETATM   22  C   UNK N   1     144.813 150.800 162.908  0.00  0.00     0.015 C 
ENDBRANCH  18  20
BRANCH  19  23
HETATM   23  O   UNK N   1     141.375 152.985 162.345  0.00  0.00    -0.357 OA
HETATM   24  H   UNK N   1     141.748 153.035 163.233  0.00  0.00     0.218 HD
ENDBRANCH  19  23
BRANCH  16  25
HETATM   25  O   UNK N   1     140.236 153.272 159.774  0.00  0.00    -0.357 OA
HETATM   26  H   UNK N   1     140.016 154.131 159.399  0.00  0.00     0.218 HD
ENDBRANCH  16  25
BRANCH   6  27
HETATM   27  O   UNK N   1     144.775 152.413 155.484  0.00  0.00    -0.392 OA
HETATM   28  H   UNK N   1     144.098 151.785 155.119  0.00  0.00     0.210 HD
ENDBRANCH   6  27
TORSDOF 4
ENDMDL
MODEL 2
REMARK VINA RESULT:      -6.6     10.178     12.646
REMARK  4 active torsions:
REMARK  status: ('A' for Active; 'I' for Inactive)
REMARK    1  A    between atoms: O_2  and  C_9 
REMARK    2  A    between atoms: O_4  and  C_19 
REMARK    3  A    between atoms: O_5  and  C_22 
REMARK    4  A    between atoms: C_21  and  C_23 
ROOT
HETATM    1  O   UNK N   1     152.553 158.418 154.848  0.00  0.00    -0.308 OA
HETATM    2  O   UNK N   1     151.044 156.894 155.540  0.00  0.00    -0.264 OA
HETATM    3  C   UNK N   1     151.808 157.570 152.187  0.00  0.00     0.048 C 
HETATM    4  C   UNK N   1     150.732 157.826 153.326  0.00  0.00     0.085 C 
HETATM    5  C   UNK N   1     151.814 156.104 151.638  0.00  0.00    -0.040 C 
HETATM    6  C   UNK N   1     153.175 158.298 152.562  0.00  0.00     0.158 C 
HETATM    7  C   UNK N   1     149.474 156.903 153.191  0.00  0.00     0.025 C 
HETATM    8  C   UNK N   1     150.363 155.761 151.114  0.00  0.00     0.009 C 
HETATM    9  C   UNK N   1     152.923 159.242 153.784  0.00  0.00     0.194 C 
HETATM   10  C   UNK N   1     150.523 159.366 153.252  0.00  0.00     0.006 A 
HETATM   11  C   UNK N   1     149.208 156.606 151.721  0.00  0.00     0.002 C 
HETATM   12  C   UNK N   1     151.707 160.097 153.479  0.00  0.00    -0.015 A 
HETATM   13  C   UNK N   1     151.440 157.647 154.666  0.00  0.00     0.273 C 
HETATM   14  C   UNK N   1     152.798 155.960 150.453  0.00  0.00     0.015 C 
HETATM   15  C   UNK N   1     152.237 155.071 152.722  0.00  0.00     0.015 C 
HETATM   16  C   UNK N   1     149.323 160.065 152.982  0.00  0.00     0.107 A 
HETATM   17  C   UNK N   1     151.723 161.487 153.461  0.00  0.00     0.021 A 
HETATM   18  C   UNK N   1     150.537 162.199 153.213  0.00  0.00    -0.018 A 
HETATM   19  C   UNK N   1     149.330 161.491 152.980  0.00  0.00     0.106 A 
ENDROOT
BRANCH  18  20
HETATM   20  C   UNK N   1     150.552 163.726 153.199  0.00  0.00     0.013 C 
HETATM   21  C   UNK N   1     151.907 164.255 152.712  0.00  0.00     0.015 C 
HETATM   22  C   UNK N   1     150.201 164.297 154.578  0.00  0.00     0.015 C 
ENDBRANCH  18  20
BRANCH  19  23
HETATM   23  O   UNK N   1     148.195 162.199 152.771  0.00  0.00    -0.357 OA
HETATM   24  H   UNK N   1     148.043 162.789 152.023  0.00  0.00     0.218 HD
ENDBRANCH  19  23
BRANCH  16  25
HETATM   25  O   UNK N   1     148.195 159.373 152.712  0.00  0.00    -0.357 OA
HETATM   26  H   UNK N   1     147.434 159.724 152.237  0.00  0.00     0.218 HD
ENDBRANCH  16  25
BRANCH   6  27
HETATM   27  O   UNK N   1     154.172 157.381 152.925  0.00  0.00    -0.392 OA
HETATM   28  H   UNK N   1     154.972 157.911 153.180  0.00  0.00     0.210 HD
ENDBRANCH   6  27
TORSDOF 4
ENDMDL
MODEL 3
REMARK VINA RESULT:      -6.6      2.669      4.004
REMARK  4 active torsions:
REMARK  status: ('A' for Active; 'I' for Inactive)
REMARK    1  A    between atoms: O_2  and  C_9 
REMARK    2  A    between atoms: O_4  and  C_19 
REMARK    3  A    between atoms: O_5  and  C_22 
REMARK    4  A    between atoms: C_21  and  C_23 
ROOT
HETATM    1  O   UNK N   1     139.628 150.029 156.914  0.00  0.00    -0.308 OA
HETATM    2  O   UNK N   1     138.234 150.377 158.650  0.00  0.00    -0.264 OA
HETATM    3  C   UNK N   1     139.459 152.889 156.536  0.00  0.00     0.048 C 
HETATM    4  C   UNK N   1     139.633 152.235 157.971  0.00  0.00     0.085 C 
HETATM    5  C   UNK N   1     138.150 153.735 156.379  0.00  0.00    -0.040 C 
HETATM    6  C   UNK N   1     139.885 151.845 155.410  0.00  0.00     0.158 C 
HETATM    7  C   UNK N   1     138.952 153.071 159.107  0.00  0.00     0.025 C 
HETATM    8  C   UNK N   1     138.139 154.850 157.499  0.00  0.00     0.009 C 
HETATM    9  C   UNK N   1     140.587 150.627 156.096  0.00  0.00     0.194 C 
HETATM   10  C   UNK N   1     141.170 152.003 158.052  0.00  0.00     0.006 A 
HETATM   11  C   UNK N   1     139.003 154.552 158.757  0.00  0.00     0.002 C 
HETATM   12  C   UNK N   1     141.656 151.161 157.032  0.00  0.00    -0.015 A 
HETATM   13  C   UNK N   1     139.082 150.814 157.890  0.00  0.00     0.273 C 
HETATM   14  C   UNK N   1     138.108 154.439 155.003  0.00  0.00     0.015 C 
HETATM   15  C   UNK N   1     136.868 152.862 156.495  0.00  0.00     0.015 C 
HETATM   16  C   UNK N   1     142.077 152.538 158.995  0.00  0.00     0.107 A 
HETATM   17  C   UNK N   1     143.003 150.828 156.938  0.00  0.00     0.021 A 
HETATM   18  C   UNK N   1     143.918 151.336 157.878  0.00  0.00    -0.018 A 
HETATM   19  C   UNK N   1     143.457 152.187 158.915  0.00  0.00     0.106 A 
ENDROOT
BRANCH  18  20
HETATM   20  C   UNK N   1     145.396 150.967 157.779  0.00  0.00     0.013 C 
HETATM   21  C   UNK N   1     145.812 150.758 156.318  0.00  0.00     0.015 C 
HETATM   22  C   UNK N   1     145.717 149.729 158.626  0.00  0.00     0.015 C 
ENDBRANCH  18  20
BRANCH  19  23
HETATM   23  O   UNK N   1     144.352 152.639 159.824  0.00  0.00    -0.357 OA
HETATM   24  H   UNK N   1     145.280 152.378 159.861  0.00  0.00     0.218 HD
ENDBRANCH  19  23
BRANCH  16  25
HETATM   25  O   UNK N   1     141.629 153.387 159.945  0.00  0.00    -0.357 OA
HETATM   26  H   UNK N   1     142.030 154.236 160.159  0.00  0.00     0.218 HD
ENDBRANCH  16  25
BRANCH   6  27
HETATM   27  O   UNK N   1     138.777 151.361 154.701  0.00  0.00    -0.392 OA
HETATM   28  H   UNK N   1     138.524 152.064 154.047  0.00  0.00     0.210 HD
ENDBRANCH   6  27
TORSDOF 4
ENDMDL
MODEL 4
REMARK VINA RESULT:      -6.6     31.982     34.027
REMARK  4 active torsions:
REMARK  status: ('A' for Active; 'I' for Inactive)
REMARK    1  A    between atoms: O_2  and  C_9 
REMARK    2  A    between atoms: O_4  and  C_19 
REMARK    3  A    between atoms: O_5  and  C_22 
REMARK    4  A    between atoms: C_21  and  C_23 
ROOT
HETATM    1  O   UNK N   1     162.456 123.245 151.812  0.00  0.00    -0.308 OA
HETATM    2  O   UNK N   1     162.965 124.897 150.366  0.00  0.00    -0.264 OA
HETATM    3  C   UNK N   1     162.560 125.321 153.820  0.00  0.00     0.048 C 
HETATM    4  C   UNK N   1     161.848 125.535 152.418  0.00  0.00     0.085 C 
HETATM    5  C   UNK N   1     163.748 126.305 154.086  0.00  0.00    -0.040 C 
HETATM    6  C   UNK N   1     162.722 123.762 154.112  0.00  0.00     0.158 C 
HETATM    7  C   UNK N   1     161.927 127.017 151.918  0.00  0.00     0.025 C 
HETATM    8  C   UNK N   1     163.208 127.785 153.962  0.00  0.00     0.009 C 
HETATM    9  C   UNK N   1     161.888 122.965 153.055  0.00  0.00     0.194 C 
HETATM   10  C   UNK N   1     160.441 124.916 152.657  0.00  0.00     0.006 A 
HETATM   11  C   UNK N   1     161.920 127.964 153.109  0.00  0.00     0.002 C 
HETATM   12  C   UNK N   1     160.490 123.553 153.013  0.00  0.00    -0.015 A 
HETATM   13  C   UNK N   1     162.484 124.557 151.434  0.00  0.00     0.273 C 
HETATM   14  C   UNK N   1     164.312 126.120 155.514  0.00  0.00     0.015 C 
HETATM   15  C   UNK N   1     164.923 126.091 153.089  0.00  0.00     0.015 C 
HETATM   16  C   UNK N   1     159.185 125.559 152.563  0.00  0.00     0.107 A 
HETATM   17  C   UNK N   1     159.334 122.820 153.261  0.00  0.00     0.021 A 
HETATM   18  C   UNK N   1     158.075 123.438 153.156  0.00  0.00    -0.018 A 
HETATM   19  C   UNK N   1     157.996 124.808 152.799  0.00  0.00     0.106 A 
ENDROOT
BRANCH  18  20
HETATM   20  C   UNK N   1     156.806 122.632 153.422  0.00  0.00     0.013 C 
HETATM   21  C   UNK N   1     156.394 122.730 154.896  0.00  0.00     0.015 C 
HETATM   22  C   UNK N   1     156.976 121.170 152.993  0.00  0.00     0.015 C 
ENDBRANCH  18  20
BRANCH  19  23
HETATM   23  O   UNK N   1     156.771 125.373 152.677  0.00  0.00    -0.357 OA
HETATM   24  H   UNK N   1     156.207 125.631 153.415  0.00  0.00     0.218 HD
ENDBRANCH  19  23
BRANCH  16  25
HETATM   25  O   UNK N   1     159.130 126.877 152.273  0.00  0.00    -0.357 OA
HETATM   26  H   UNK N   1     158.329 127.356 152.035  0.00  0.00     0.218 HD
ENDBRANCH  16  25
BRANCH   6  27
HETATM   27  O   UNK N   1     164.058 123.348 154.008  0.00  0.00    -0.392 OA
HETATM   28  H   UNK N   1     164.186 122.622 154.673  0.00  0.00     0.210 HD
ENDBRANCH   6  27
TORSDOF 4
ENDMDL
MODEL 5
REMARK VINA RESULT:      -6.5     32.555     34.794
REMARK  4 active torsions:
REMARK  status: ('A' for Active; 'I' for Inactive)
REMARK    1  A    between atoms: O_2  and  C_9 
REMARK    2  A    between atoms: O_4  and  C_19 
REMARK    3  A    between atoms: O_5  and  C_22 
REMARK    4  A    between atoms: C_21  and  C_23 
ROOT
HETATM    1  O   UNK N   1     154.533 138.975 189.275  0.00  0.00    -0.308 OA
HETATM    2  O   UNK N   1     155.210 139.214 187.138  0.00  0.00    -0.264 OA
HETATM    3  C   UNK N   1     154.994 141.821 189.469  0.00  0.00     0.048 C 
HETATM    4  C   UNK N   1     154.267 141.166 188.220  0.00  0.00     0.085 C 
HETATM    5  C   UNK N   1     156.314 142.582 189.109  0.00  0.00    -0.040 C 
HETATM    6  C   UNK N   1     154.951 140.819 190.707  0.00  0.00     0.158 C 
HETATM    7  C   UNK N   1     154.530 141.945 186.887  0.00  0.00     0.025 C 
HETATM    8  C   UNK N   1     155.978 143.682 188.025  0.00  0.00     0.009 C 
HETATM    9  C   UNK N   1     153.978 139.643 190.367  0.00  0.00     0.194 C 
HETATM   10  C   UNK N   1     152.798 141.035 188.715  0.00  0.00     0.006 A 
HETATM   11  C   UNK N   1     154.696 143.429 187.182  0.00  0.00     0.002 C 
HETATM   12  C   UNK N   1     152.673 140.236 189.870  0.00  0.00    -0.015 A 
HETATM   13  C   UNK N   1     154.726 139.712 188.141  0.00  0.00     0.273 C 
HETATM   14  C   UNK N   1     156.900 143.295 190.349  0.00  0.00     0.015 C 
HETATM   15  C   UNK N   1     157.412 141.625 188.560  0.00  0.00     0.015 C 
HETATM   16  C   UNK N   1     151.639 141.618 188.152  0.00  0.00     0.107 A 
HETATM   17  C   UNK N   1     151.437 139.993 190.461  0.00  0.00     0.021 A 
HETATM   18  C   UNK N   1     150.272 140.551 189.905  0.00  0.00    -0.018 A 
HETATM   19  C   UNK N   1     150.368 141.359 188.743  0.00  0.00     0.106 A 
ENDROOT
BRANCH  18  20
HETATM   20  C   UNK N   1     148.915 140.280 190.550  0.00  0.00     0.013 C 
HETATM   21  C   UNK N   1     148.888 140.778 192.000  0.00  0.00     0.015 C 
HETATM   22  C   UNK N   1     148.549 138.793 190.471  0.00  0.00     0.015 C 
ENDBRANCH  18  20
BRANCH  19  23
HETATM   23  O   UNK N   1     149.229 141.860 188.210  0.00  0.00    -0.357 OA
HETATM   24  H   UNK N   1     148.513 142.260 188.718  0.00  0.00     0.218 HD
ENDBRANCH  19  23
BRANCH  16  25
HETATM   25  O   UNK N   1     151.755 142.427 187.076  0.00  0.00    -0.357 OA
HETATM   26  H   UNK N   1     151.572 143.373 187.076  0.00  0.00     0.218 HD
ENDBRANCH  16  25
BRANCH   6  27
HETATM   27  O   UNK N   1     156.213 140.270 190.977  0.00  0.00    -0.392 OA
HETATM   28  H   UNK N   1     156.714 140.946 191.504  0.00  0.00     0.210 HD
ENDBRANCH   6  27
TORSDOF 4
ENDMDL
MODEL 6
REMARK VINA RESULT:      -6.5     35.465     37.261
REMARK  4 active torsions:
REMARK  status: ('A' for Active; 'I' for Inactive)
REMARK    1  A    between atoms: O_2  and  C_9 
REMARK    2  A    between atoms: O_4  and  C_19 
REMARK    3  A    between atoms: O_5  and  C_22 
REMARK    4  A    between atoms: C_21  and  C_23 
ROOT
HETATM    1  O   UNK N   1     168.717 158.249 133.057  0.00  0.00    -0.308 OA
HETATM    2  O   UNK N   1     167.056 156.901 133.767  0.00  0.00    -0.264 OA
HETATM    3  C   UNK N   1     167.654 157.741 130.418  0.00  0.00     0.048 C 
HETATM    4  C   UNK N   1     166.717 158.051 131.662  0.00  0.00     0.085 C 
HETATM    5  C   UNK N   1     167.400 156.341 129.766  0.00  0.00    -0.040 C 
HETATM    6  C   UNK N   1     169.138 158.233 130.723  0.00  0.00     0.158 C 
HETATM    7  C   UNK N   1     165.330 157.330 131.571  0.00  0.00     0.025 C 
HETATM    8  C   UNK N   1     165.879 156.252 129.348  0.00  0.00     0.009 C 
HETATM    9  C   UNK N   1     169.122 159.098 132.027  0.00  0.00     0.194 C 
HETATM   10  C   UNK N   1     166.734 159.606 131.717  0.00  0.00     0.006 A 
HETATM   11  C   UNK N   1     164.912 157.198 130.113  0.00  0.00     0.002 C 
HETATM   12  C   UNK N   1     168.027 160.139 131.892  0.00  0.00    -0.015 A 
HETATM   13  C   UNK N   1     167.491 157.661 132.918  0.00  0.00     0.273 C 
HETATM   14  C   UNK N   1     168.258 156.159 128.493  0.00  0.00     0.015 C 
HETATM   15  C   UNK N   1     167.747 155.171 130.732  0.00  0.00     0.015 C 
HETATM   16  C   UNK N   1     165.634 160.488 131.605  0.00  0.00     0.107 A 
HETATM   17  C   UNK N   1     168.248 161.510 131.973  0.00  0.00     0.021 A 
HETATM   18  C   UNK N   1     167.165 162.401 131.881  0.00  0.00    -0.018 A 
HETATM   19  C   UNK N   1     165.852 161.893 131.705  0.00  0.00     0.106 A 
ENDROOT
BRANCH  18  20
HETATM   20  C   UNK N   1     167.405 163.906 131.976  0.00  0.00     0.013 C 
HETATM   21  C   UNK N   1     168.705 164.299 131.263  0.00  0.00     0.015 C 
HETATM   22  C   UNK N   1     167.414 164.376 133.436  0.00  0.00     0.015 C 
ENDBRANCH  18  20
BRANCH  19  23
HETATM   23  O   UNK N   1     164.823 162.771 131.648  0.00  0.00    -0.357 OA
HETATM   24  H   UNK N   1     164.625 163.432 132.321  0.00  0.00     0.218 HD
ENDBRANCH  19  23
BRANCH  16  25
HETATM   25  O   UNK N   1     164.398 159.988 131.385  0.00  0.00    -0.357 OA
HETATM   26  H   UNK N   1     163.771 160.333 130.740  0.00  0.00     0.218 HD
ENDBRANCH  16  25
BRANCH   6  27
HETATM   27  O   UNK N   1     170.013 157.157 130.930  0.00  0.00    -0.392 OA
HETATM   28  H   UNK N   1     170.747 157.491 131.509  0.00  0.00     0.210 HD
ENDBRANCH   6  27
TORSDOF 4
ENDMDL
MODEL 7
REMARK VINA RESULT:      -6.3     24.605     26.894
REMARK  4 active torsions:
REMARK  status: ('A' for Active; 'I' for Inactive)
REMARK    1  A    between atoms: O_2  and  C_9 
REMARK    2  A    between atoms: O_4  and  C_19 
REMARK    3  A    between atoms: O_5  and  C_22 
REMARK    4  A    between atoms: C_21  and  C_23 
ROOT
HETATM    1  O   UNK N   1     133.792 167.477 180.885  0.00  0.00    -0.308 OA
HETATM    2  O   UNK N   1     133.517 169.542 180.026  0.00  0.00    -0.264 OA
HETATM    3  C   UNK N   1     134.716 166.779 178.236  0.00  0.00     0.048 C 
HETATM    4  C   UNK N   1     135.162 168.118 178.962  0.00  0.00     0.085 C 
HETATM    5  C   UNK N   1     133.953 167.011 176.889  0.00  0.00    -0.040 C 
HETATM    6  C   UNK N   1     134.160 165.741 179.310  0.00  0.00     0.158 C 
HETATM    7  C   UNK N   1     135.428 169.292 177.961  0.00  0.00     0.025 C 
HETATM    8  C   UNK N   1     134.872 167.876 175.937  0.00  0.00     0.009 C 
HETATM    9  C   UNK N   1     134.490 166.276 180.743  0.00  0.00     0.194 C 
HETATM   10  C   UNK N   1     136.340 167.638 179.859  0.00  0.00     0.006 A 
HETATM   11  C   UNK N   1     135.956 168.737 176.645  0.00  0.00     0.002 C 
HETATM   12  C   UNK N   1     135.961 166.644 180.785  0.00  0.00    -0.015 A 
HETATM   13  C   UNK N   1     134.080 168.461 179.982  0.00  0.00     0.273 C 
HETATM   14  C   UNK N   1     133.658 165.669 176.180  0.00  0.00     0.015 C 
HETATM   15  C   UNK N   1     132.592 167.735 177.101  0.00  0.00     0.015 C 
HETATM   16  C   UNK N   1     137.685 168.075 179.829  0.00  0.00     0.107 A 
HETATM   17  C   UNK N   1     136.872 166.094 181.680  0.00  0.00     0.021 A 
HETATM   18  C   UNK N   1     138.209 166.527 181.676  0.00  0.00    -0.018 A 
HETATM   19  C   UNK N   1     138.619 167.526 180.756  0.00  0.00     0.106 A 
ENDROOT
BRANCH  18  20
HETATM   20  C   UNK N   1     139.208 165.927 182.663  0.00  0.00     0.013 C 
HETATM   21  C   UNK N   1     139.737 164.580 182.155  0.00  0.00     0.015 C 
HETATM   22  C   UNK N   1     138.593 165.787 184.060  0.00  0.00     0.015 C 
ENDBRANCH  18  20
BRANCH  19  23
HETATM   23  O   UNK N   1     139.905 167.948 180.792  0.00  0.00    -0.357 OA
HETATM   24  H   UNK N   1     140.649 167.421 181.105  0.00  0.00     0.218 HD
ENDBRANCH  19  23
BRANCH  16  25
HETATM   25  O   UNK N   1     138.069 168.989 178.911  0.00  0.00    -0.357 OA
HETATM   26  H   UNK N   1     138.913 169.452 178.915  0.00  0.00     0.218 HD
ENDBRANCH  16  25
BRANCH   6  27
HETATM   27  O   UNK N   1     132.770 165.587 179.216  0.00  0.00    -0.392 OA
HETATM   28  H   UNK N   1     132.596 164.620 179.076  0.00  0.00     0.210 HD
ENDBRANCH   6  27
TORSDOF 4
ENDMDL
MODEL 8
REMARK VINA RESULT:      -6.2     33.007     35.035
REMARK  4 active torsions:
REMARK  status: ('A' for Active; 'I' for Inactive)
REMARK    1  A    between atoms: O_2  and  C_9 
REMARK    2  A    between atoms: O_4  and  C_19 
REMARK    3  A    between atoms: O_5  and  C_22 
REMARK    4  A    between atoms: C_21  and  C_23 
ROOT
HETATM    1  O   UNK N   1     160.443 121.735 155.248  0.00  0.00    -0.308 OA
HETATM    2  O   UNK N   1     158.577 121.570 156.502  0.00  0.00    -0.264 OA
HETATM    3  C   UNK N   1     158.825 120.582 153.149  0.00  0.00     0.048 C 
HETATM    4  C   UNK N   1     158.282 121.728 154.102  0.00  0.00     0.085 C 
HETATM    5  C   UNK N   1     158.005 119.250 153.226  0.00  0.00    -0.040 C 
HETATM    6  C   UNK N   1     160.418 120.552 153.192  0.00  0.00     0.158 C 
HETATM    7  C   UNK N   1     156.740 121.626 154.356  0.00  0.00     0.025 C 
HETATM    8  C   UNK N   1     156.494 119.574 152.894  0.00  0.00     0.009 C 
HETATM    9  C   UNK N   1     160.923 121.829 153.941  0.00  0.00     0.194 C 
HETATM   10  C   UNK N   1     158.830 123.018 153.425  0.00  0.00     0.006 A 
HETATM   11  C   UNK N   1     156.053 121.046 153.128  0.00  0.00     0.002 C 
HETATM   12  C   UNK N   1     160.237 123.039 153.334  0.00  0.00    -0.015 A 
HETATM   13  C   UNK N   1     159.087 121.659 155.397  0.00  0.00     0.273 C 
HETATM   14  C   UNK N   1     158.514 118.225 152.187  0.00  0.00     0.015 C 
HETATM   15  C   UNK N   1     158.102 118.580 154.627  0.00  0.00     0.015 C 
HETATM   16  C   UNK N   1     158.090 124.108 152.912  0.00  0.00     0.107 A 
HETATM   17  C   UNK N   1     160.916 124.111 152.766  0.00  0.00     0.021 A 
HETATM   18  C   UNK N   1     160.198 125.211 152.266  0.00  0.00    -0.018 A 
HETATM   19  C   UNK N   1     158.782 125.217 152.344  0.00  0.00     0.106 A 
ENDROOT
BRANCH  18  20
HETATM   20  C   UNK N   1     160.944 126.392 151.648  0.00  0.00     0.013 C 
HETATM   21  C   UNK N   1     162.155 125.911 150.839  0.00  0.00     0.015 C 
HETATM   22  C   UNK N   1     161.364 127.406 152.719  0.00  0.00     0.015 C 
ENDBRANCH  18  20
BRANCH  19  23
HETATM   23  O   UNK N   1     158.114 126.301 151.882  0.00  0.00    -0.357 OA
HETATM   24  H   UNK N   1     157.397 126.273 151.239  0.00  0.00     0.218 HD
ENDBRANCH  19  23
BRANCH  16  25
HETATM   25  O   UNK N   1     156.740 124.073 152.948  0.00  0.00    -0.357 OA
HETATM   26  H   UNK N   1     156.173 123.878 152.194  0.00  0.00     0.218 HD
ENDBRANCH  16  25
BRANCH   6  27
HETATM   27  O   UNK N   1     160.901 119.430 153.879  0.00  0.00    -0.392 OA
HETATM   28  H   UNK N   1     161.885 119.410 153.742  0.00  0.00     0.210 HD
ENDBRANCH   6  27
TORSDOF 4
ENDMDL
MODEL 9
REMARK VINA RESULT:      -6.2     30.066     32.165
REMARK  4 active torsions:
REMARK  status: ('A' for Active; 'I' for Inactive)
REMARK    1  A    between atoms: O_2  and  C_9 
REMARK    2  A    between atoms: O_4  and  C_19 
REMARK    3  A    between atoms: O_5  and  C_22 
REMARK    4  A    between atoms: C_21  and  C_23 
ROOT
HETATM    1  O   UNK N   1     158.242 127.540 154.033  0.00  0.00    -0.308 OA
HETATM    2  O   UNK N   1     158.416 127.006 151.851  0.00  0.00    -0.264 OA
HETATM    3  C   UNK N   1     159.301 124.892 154.502  0.00  0.00     0.048 C 
HETATM    4  C   UNK N   1     159.893 125.855 153.388  0.00  0.00     0.085 C 
HETATM    5  C   UNK N   1     158.733 123.545 153.940  0.00  0.00    -0.040 C 
HETATM    6  C   UNK N   1     158.467 125.740 155.562  0.00  0.00     0.158 C 
HETATM    7  C   UNK N   1     160.459 125.078 152.152  0.00  0.00     0.025 C 
HETATM    8  C   UNK N   1     159.880 122.817 153.134  0.00  0.00     0.009 C 
HETATM    9  C   UNK N   1     158.733 127.261 155.309  0.00  0.00     0.194 C 
HETATM   10  C   UNK N   1     160.871 126.750 154.202  0.00  0.00     0.006 A 
HETATM   11  C   UNK N   1     161.017 123.734 152.600  0.00  0.00     0.002 C 
HETATM   12  C   UNK N   1     160.233 127.473 155.231  0.00  0.00    -0.015 A 
HETATM   13  C   UNK N   1     158.786 126.832 153.000  0.00  0.00     0.273 C 
HETATM   14  C   UNK N   1     158.286 122.610 155.088  0.00  0.00     0.015 C 
HETATM   15  C   UNK N   1     157.502 123.767 153.015  0.00  0.00     0.015 C 
HETATM   16  C   UNK N   1     162.267 126.892 154.023  0.00  0.00     0.107 A 
HETATM   17  C   UNK N   1     160.939 128.334 156.064  0.00  0.00     0.021 A 
HETATM   18  C   UNK N   1     162.324 128.502 155.890  0.00  0.00    -0.018 A 
HETATM   19  C   UNK N   1     162.992 127.787 154.864  0.00  0.00     0.106 A 
ENDROOT
BRANCH  18  20
HETATM   20  C   UNK N   1     163.097 129.452 156.801  0.00  0.00     0.013 C 
HETATM   21  C   UNK N   1     162.582 129.369 158.244  0.00  0.00     0.015 C 
HETATM   22  C   UNK N   1     163.040 130.892 156.278  0.00  0.00     0.015 C 
ENDBRANCH  18  20
BRANCH  19  23
HETATM   23  O   UNK N   1     164.321 127.988 154.698  0.00  0.00    -0.357 OA
HETATM   24  H   UNK N   1     164.814 127.776 153.896  0.00  0.00     0.218 HD
ENDBRANCH  19  23
BRANCH  16  25
HETATM   25  O   UNK N   1     162.895 126.165 153.074  0.00  0.00    -0.357 OA
HETATM   26  H   UNK N   1     163.452 125.398 153.246  0.00  0.00     0.218 HD
ENDBRANCH  16  25
BRANCH   6  27
HETATM   27  O   UNK N   1     157.088 125.518 155.440  0.00  0.00    -0.392 OA
HETATM   28  H   UNK N   1     156.664 126.406 155.302  0.00  0.00     0.210 HD
ENDBRANCH   6  27
TORSDOF 4
ENDMDL
