MODEL 1
REMARK VINA RESULT:      -7.5      0.000      0.000
REMARK  3 active torsions:
REMARK  status: ('A' for Active; 'I' for Inactive)
REMARK    1  A    between atoms: O_2  and  C_17 
REMARK    2  A    between atoms: O_3  and  C_20 
REMARK    3  A    between atoms: C_19  and  C_21 
ROOT
HETATM    1  O   UNK N   1     130.306 164.294 179.439  0.00  0.00    -0.380 OA
HETATM    2  C   UNK N   1     129.311 166.545 179.006  0.00  0.00     0.016 C 
HETATM    3  C   UNK N   1     128.052 165.830 178.387  0.00  0.00     0.011 C 
HETATM    4  C   UNK N   1     126.710 165.855 179.229  0.00  0.00    -0.043 C 
HETATM    5  C   UNK N   1     128.477 164.412 177.861  0.00  0.00     0.043 C 
HETATM    6  C   UNK N   1     128.912 167.914 179.614  0.00  0.00     0.017 C 
HETATM    7  C   UNK N   1     130.006 164.231 178.039  0.00  0.00     0.155 C 
HETATM    8  C   UNK N   1     130.351 166.629 177.861  0.00  0.00    -0.002 A 
HETATM    9  C   UNK N   1     129.994 165.576 180.024  0.00  0.00     0.183 C 
HETATM   10  C   UNK N   1     126.487 167.299 179.758  0.00  0.00     0.009 C 
HETATM   11  C   UNK N   1     127.700 167.829 180.545  0.00  0.00     0.002 C 
HETATM   12  C   UNK N   1     130.699 165.380 177.357  0.00  0.00    -0.019 A 
HETATM   13  C   UNK N   1     125.531 165.492 178.295  0.00  0.00     0.015 C 
HETATM   14  C   UNK N   1     126.646 164.869 180.429  0.00  0.00     0.015 C 
HETATM   15  C   UNK N   1     130.942 167.786 177.304  0.00  0.00     0.107 A 
HETATM   16  C   UNK N   1     131.625 165.237 176.326  0.00  0.00     0.021 A 
HETATM   17  C   UNK N   1     132.225 166.373 175.746  0.00  0.00    -0.018 A 
HETATM   18  C   UNK N   1     131.859 167.667 176.234  0.00  0.00     0.106 A 
ENDROOT
BRANCH  17  19
HETATM   19  C   UNK N   1     133.255 166.176 174.630  0.00  0.00     0.013 C 
HETATM   20  C   UNK N   1     132.568 165.982 173.275  0.00  0.00     0.015 C 
HETATM   21  C   UNK N   1     134.194 165.004 174.950  0.00  0.00     0.015 C 
ENDBRANCH  17  19
BRANCH  18  22
HETATM   22  O   UNK N   1     132.351 168.811 175.702  0.00  0.00    -0.357 OA
HETATM   23  H   UNK N   1     132.713 169.554 176.193  0.00  0.00     0.218 HD
ENDBRANCH  18  22
BRANCH  15  24
HETATM   24  O   UNK N   1     130.633 169.013 177.778  0.00  0.00    -0.357 OA
HETATM   25  H   UNK N   1     129.914 169.552 177.423  0.00  0.00     0.218 HD
ENDBRANCH  15  24
TORSDOF 3
ENDMDL
MODEL 2
REMARK VINA RESULT:      -7.4     34.007     37.088
REMARK  3 active torsions:
REMARK  status: ('A' for Active; 'I' for Inactive)
REMARK    1  A    between atoms: O_2  and  C_17 
REMARK    2  A    between atoms: O_3  and  C_20 
REMARK    3  A    between atoms: C_19  and  C_21 
ROOT
HETATM    1  O   UNK N   1     136.343 139.188 153.881  0.00  0.00    -0.380 OA
HETATM    2  C   UNK N   1     136.678 141.350 152.673  0.00  0.00     0.016 C 
HETATM    3  C   UNK N   1     135.400 141.914 153.402  0.00  0.00     0.011 C 
HETATM    4  C   UNK N   1     135.625 142.991 154.542  0.00  0.00    -0.043 C 
HETATM    5  C   UNK N   1     134.467 140.714 153.800  0.00  0.00     0.043 C 
HETATM    6  C   UNK N   1     137.663 142.499 152.342  0.00  0.00     0.017 C 
HETATM    7  C   UNK N   1     135.068 139.390 153.259  0.00  0.00     0.155 C 
HETATM    8  C   UNK N   1     136.150 140.579 151.437  0.00  0.00    -0.002 A 
HETATM    9  C   UNK N   1     137.300 140.215 153.549  0.00  0.00     0.183 C 
HETATM   10  C   UNK N   1     136.642 144.046 154.029  0.00  0.00     0.009 C 
HETATM   11  C   UNK N   1     137.956 143.406 153.540  0.00  0.00     0.002 C 
HETATM   12  C   UNK N   1     135.286 139.544 151.777  0.00  0.00    -0.019 A 
HETATM   13  C   UNK N   1     134.282 143.706 154.821  0.00  0.00     0.015 C 
HETATM   14  C   UNK N   1     136.126 142.437 155.906  0.00  0.00     0.015 C 
HETATM   15  C   UNK N   1     136.438 140.817 150.074  0.00  0.00     0.107 A 
HETATM   16  C   UNK N   1     134.706 138.724 150.811  0.00  0.00     0.021 A 
HETATM   17  C   UNK N   1     134.969 138.942 149.443  0.00  0.00    -0.018 A 
HETATM   18  C   UNK N   1     135.834 140.021 149.074  0.00  0.00     0.106 A 
ENDROOT
BRANCH  17  19
HETATM   19  C   UNK N   1     134.332 138.009 148.410  0.00  0.00     0.013 C 
HETATM   20  C   UNK N   1     132.803 138.059 148.490  0.00  0.00     0.015 C 
HETATM   21  C   UNK N   1     134.849 136.573 148.576  0.00  0.00     0.015 C 
ENDBRANCH  17  19
BRANCH  18  22
HETATM   22  O   UNK N   1     136.101 140.329 147.782  0.00  0.00    -0.357 OA
HETATM   23  H   UNK N   1     136.874 140.804 147.462  0.00  0.00     0.218 HD
ENDBRANCH  18  22
BRANCH  15  24
HETATM   24  O   UNK N   1     137.281 141.809 149.712  0.00  0.00    -0.357 OA
HETATM   25  H   UNK N   1     138.071 142.042 150.216  0.00  0.00     0.218 HD
ENDBRANCH  15  24
TORSDOF 3
ENDMDL
MODEL 3
REMARK VINA RESULT:      -7.1     54.763     58.584
REMARK  3 active torsions:
REMARK  status: ('A' for Active; 'I' for Inactive)
REMARK    1  A    between atoms: O_2  and  C_17 
REMARK    2  A    between atoms: O_3  and  C_20 
REMARK    3  A    between atoms: C_19  and  C_21 
ROOT
HETATM    1  O   UNK N   1     169.654 134.916 148.238  0.00  0.00    -0.380 OA
HETATM    2  C   UNK N   1     167.586 133.527 148.036  0.00  0.00     0.016 C 
HETATM    3  C   UNK N   1     166.943 134.380 149.193  0.00  0.00     0.011 C 
HETATM    4  C   UNK N   1     165.798 135.402 148.798  0.00  0.00    -0.043 C 
HETATM    5  C   UNK N   1     168.090 134.983 150.082  0.00  0.00     0.043 C 
HETATM    6  C   UNK N   1     166.487 132.986 147.087  0.00  0.00     0.017 C 
HETATM    7  C   UNK N   1     169.461 134.459 149.582  0.00  0.00     0.155 C 
HETATM    8  C   UNK N   1     168.424 132.430 148.739  0.00  0.00    -0.002 A 
HETATM    9  C   UNK N   1     168.676 134.387 147.318  0.00  0.00     0.183 C 
HETATM   10  C   UNK N   1     164.805 134.684 147.843  0.00  0.00     0.009 C 
HETATM   11  C   UNK N   1     165.510 134.068 146.619  0.00  0.00     0.002 C 
HETATM   12  C   UNK N   1     169.413 132.954 149.566  0.00  0.00    -0.019 A 
HETATM   13  C   UNK N   1     165.032 135.809 150.079  0.00  0.00     0.015 C 
HETATM   14  C   UNK N   1     166.272 136.721 148.124  0.00  0.00     0.015 C 
HETATM   15  C   UNK N   1     168.285 131.027 148.637  0.00  0.00     0.107 A 
HETATM   16  C   UNK N   1     170.280 132.134 150.285  0.00  0.00     0.021 A 
HETATM   17  C   UNK N   1     170.160 130.732 150.208  0.00  0.00    -0.018 A 
HETATM   18  C   UNK N   1     169.131 130.175 149.384  0.00  0.00     0.106 A 
ENDROOT
BRANCH  17  19
HETATM   19  C   UNK N   1     171.144 129.861 150.994  0.00  0.00     0.013 C 
HETATM   20  C   UNK N   1     171.339 130.398 152.416  0.00  0.00     0.015 C 
HETATM   21  C   UNK N   1     172.485 129.746 150.256  0.00  0.00     0.015 C 
ENDBRANCH  17  19
BRANCH  18  22
HETATM   22  O   UNK N   1     168.916 128.841 149.291  0.00  0.00    -0.357 OA
HETATM   23  H   UNK N   1     168.135 128.418 148.924  0.00  0.00     0.218 HD
ENDBRANCH  18  22
BRANCH  15  24
HETATM   24  O   UNK N   1     167.341 130.486 147.836  0.00  0.00    -0.357 OA
HETATM   25  H   UNK N   1     166.411 130.748 147.862  0.00  0.00     0.218 HD
ENDBRANCH  15  24
TORSDOF 3
ENDMDL
MODEL 4
REMARK VINA RESULT:      -7.1     55.512     57.939
REMARK  3 active torsions:
REMARK  status: ('A' for Active; 'I' for Inactive)
REMARK    1  A    between atoms: O_2  and  C_17 
REMARK    2  A    between atoms: O_3  and  C_20 
REMARK    3  A    between atoms: C_19  and  C_21 
ROOT
HETATM    1  O   UNK N   1     169.788 134.633 149.850  0.00  0.00    -0.380 OA
HETATM    2  C   UNK N   1     168.079 133.214 148.705  0.00  0.00     0.016 C 
HETATM    3  C   UNK N   1     166.996 134.304 149.049  0.00  0.00     0.011 C 
HETATM    4  C   UNK N   1     166.453 135.196 147.857  0.00  0.00    -0.043 C 
HETATM    5  C   UNK N   1     167.463 135.107 150.317  0.00  0.00     0.043 C 
HETATM    6  C   UNK N   1     167.695 132.459 147.408  0.00  0.00     0.017 C 
HETATM    7  C   UNK N   1     168.780 134.495 150.860  0.00  0.00     0.155 C 
HETATM    8  C   UNK N   1     168.186 132.317 149.963  0.00  0.00    -0.002 A 
HETATM    9  C   UNK N   1     169.484 133.897 148.647  0.00  0.00     0.183 C 
HETATM   10  C   UNK N   1     166.133 134.269 146.654  0.00  0.00     0.009 C 
HETATM   11  C   UNK N   1     167.336 133.395 146.250  0.00  0.00     0.002 C 
HETATM   12  C   UNK N   1     168.553 133.027 151.102  0.00  0.00    -0.019 A 
HETATM   13  C   UNK N   1     165.140 135.880 148.307  0.00  0.00     0.015 C 
HETATM   14  C   UNK N   1     167.402 136.330 147.375  0.00  0.00     0.015 C 
HETATM   15  C   UNK N   1     167.951 130.927 150.065  0.00  0.00     0.107 A 
HETATM   16  C   UNK N   1     168.711 132.403 152.338  0.00  0.00     0.021 A 
HETATM   17  C   UNK N   1     168.476 131.019 152.470  0.00  0.00    -0.018 A 
HETATM   18  C   UNK N   1     168.071 130.278 151.315  0.00  0.00     0.106 A 
ENDROOT
BRANCH  17  19
HETATM   19  C   UNK N   1     168.680 130.362 153.838  0.00  0.00     0.013 C 
HETATM   20  C   UNK N   1     167.442 130.539 154.723  0.00  0.00     0.015 C 
HETATM   21  C   UNK N   1     169.937 130.911 154.528  0.00  0.00     0.015 C 
ENDBRANCH  17  19
BRANCH  18  22
HETATM   22  O   UNK N   1     167.780 128.956 151.364  0.00  0.00    -0.357 OA
HETATM   23  H   UNK N   1     167.943 128.368 152.107  0.00  0.00     0.218 HD
ENDBRANCH  18  22
BRANCH  15  24
HETATM   24  O   UNK N   1     167.603 130.207 148.975  0.00  0.00    -0.357 OA
HETATM   25  H   UNK N   1     168.238 129.707 148.446  0.00  0.00     0.218 HD
ENDBRANCH  15  24
TORSDOF 3
ENDMDL
MODEL 5
REMARK VINA RESULT:      -7.0     32.319     34.975
REMARK  3 active torsions:
REMARK  status: ('A' for Active; 'I' for Inactive)
REMARK    1  A    between atoms: O_2  and  C_17 
REMARK    2  A    between atoms: O_3  and  C_20 
REMARK    3  A    between atoms: C_19  and  C_21 
ROOT
HETATM    1  O   UNK N   1     153.872 142.418 185.384  0.00  0.00    -0.380 OA
HETATM    2  C   UNK N   1     152.036 142.095 187.049  0.00  0.00     0.016 C 
HETATM    3  C   UNK N   1     151.678 143.621 186.896  0.00  0.00     0.011 C 
HETATM    4  C   UNK N   1     150.347 143.984 186.116  0.00  0.00    -0.043 C 
HETATM    5  C   UNK N   1     152.957 144.402 186.422  0.00  0.00     0.043 C 
HETATM    6  C   UNK N   1     150.776 141.279 187.432  0.00  0.00     0.017 C 
HETATM    7  C   UNK N   1     154.162 143.429 186.357  0.00  0.00     0.155 C 
HETATM    8  C   UNK N   1     153.182 142.035 188.090  0.00  0.00    -0.002 A 
HETATM    9  C   UNK N   1     152.734 141.605 185.739  0.00  0.00     0.183 C 
HETATM   10  C   UNK N   1     149.208 143.061 186.629  0.00  0.00     0.009 C 
HETATM   11  C   UNK N   1     149.574 141.568 186.530  0.00  0.00     0.002 C 
HETATM   12  C   UNK N   1     154.302 142.763 187.700  0.00  0.00    -0.019 A 
HETATM   13  C   UNK N   1     149.968 145.449 186.437  0.00  0.00     0.015 C 
HETATM   14  C   UNK N   1     150.420 143.873 184.567  0.00  0.00     0.015 C 
HETATM   15  C   UNK N   1     153.197 141.360 189.331  0.00  0.00     0.107 A 
HETATM   16  C   UNK N   1     155.445 142.832 188.494  0.00  0.00     0.021 A 
HETATM   17  C   UNK N   1     155.486 142.174 189.740  0.00  0.00    -0.018 A 
HETATM   18  C   UNK N   1     154.333 141.444 190.169  0.00  0.00     0.106 A 
ENDROOT
BRANCH  17  19
HETATM   19  C   UNK N   1     156.767 142.254 190.576  0.00  0.00     0.013 C 
HETATM   20  C   UNK N   1     156.922 143.637 191.216  0.00  0.00     0.015 C 
HETATM   21  C   UNK N   1     157.996 141.892 189.731  0.00  0.00     0.015 C 
ENDBRANCH  17  19
BRANCH  18  22
HETATM   22  O   UNK N   1     154.270 140.824 191.372  0.00  0.00    -0.357 OA
HETATM   23  H   UNK N   1     154.244 141.256 192.231  0.00  0.00     0.218 HD
ENDBRANCH  18  22
BRANCH  15  24
HETATM   24  O   UNK N   1     152.129 140.637 189.734  0.00  0.00    -0.357 OA
HETATM   25  H   UNK N   1     151.262 140.693 189.311  0.00  0.00     0.218 HD
ENDBRANCH  15  24
TORSDOF 3
ENDMDL
MODEL 6
REMARK VINA RESULT:      -6.8     57.479     59.807
REMARK  3 active torsions:
REMARK  status: ('A' for Active; 'I' for Inactive)
REMARK    1  A    between atoms: O_2  and  C_17 
REMARK    2  A    between atoms: O_3  and  C_20 
REMARK    3  A    between atoms: C_19  and  C_21 
ROOT
HETATM    1  O   UNK N   1     168.151 157.767 133.123  0.00  0.00    -0.380 OA
HETATM    2  C   UNK N   1     166.366 158.102 131.406  0.00  0.00     0.016 C 
HETATM    3  C   UNK N   1     167.432 157.792 130.289  0.00  0.00     0.011 C 
HETATM    4  C   UNK N   1     167.319 156.402 129.537  0.00  0.00    -0.043 C 
HETATM    5  C   UNK N   1     168.864 158.131 130.841  0.00  0.00     0.043 C 
HETATM    6  C   UNK N   1     164.948 157.698 130.929  0.00  0.00     0.017 C 
HETATM    7  C   UNK N   1     168.740 158.746 132.259  0.00  0.00     0.155 C 
HETATM    8  C   UNK N   1     166.529 159.607 131.735  0.00  0.00    -0.002 A 
HETATM    9  C   UNK N   1     166.808 157.408 132.735  0.00  0.00     0.183 C 
HETATM   10  C   UNK N   1     165.833 156.172 129.148  0.00  0.00     0.009 C 
HETATM   11  C   UNK N   1     164.886 156.278 130.359  0.00  0.00     0.002 C 
HETATM   12  C   UNK N   1     167.808 159.926 132.180  0.00  0.00    -0.019 A 
HETATM   13  C   UNK N   1     168.156 156.470 128.238  0.00  0.00     0.015 C 
HETATM   14  C   UNK N   1     167.825 155.162 130.328  0.00  0.00     0.015 C 
HETATM   15  C   UNK N   1     165.562 160.633 131.626  0.00  0.00     0.107 A 
HETATM   16  C   UNK N   1     168.159 161.227 132.535  0.00  0.00     0.021 A 
HETATM   17  C   UNK N   1     167.218 162.271 132.429  0.00  0.00    -0.018 A 
HETATM   18  C   UNK N   1     165.905 161.966 131.947  0.00  0.00     0.106 A 
ENDROOT
BRANCH  17  19
HETATM   19  C   UNK N   1     167.632 163.684 132.848  0.00  0.00     0.013 C 
HETATM   20  C   UNK N   1     169.122 163.923 132.584  0.00  0.00     0.015 C 
HETATM   21  C   UNK N   1     167.280 163.945 134.319  0.00  0.00     0.015 C 
ENDBRANCH  17  19
BRANCH  18  22
HETATM   22  O   UNK N   1     164.957 162.916 131.769  0.00  0.00    -0.357 OA
HETATM   23  H   UNK N   1     164.999 163.824 132.085  0.00  0.00     0.218 HD
ENDBRANCH  18  22
BRANCH  15  24
HETATM   24  O   UNK N   1     164.308 160.354 131.206  0.00  0.00    -0.357 OA
HETATM   25  H   UNK N   1     163.864 160.846 130.503  0.00  0.00     0.218 HD
ENDBRANCH  15  24
TORSDOF 3
ENDMDL
MODEL 7
REMARK VINA RESULT:      -6.8      2.736      6.268
REMARK  3 active torsions:
REMARK  status: ('A' for Active; 'I' for Inactive)
REMARK    1  A    between atoms: O_2  and  C_17 
REMARK    2  A    between atoms: O_3  and  C_20 
REMARK    3  A    between atoms: C_19  and  C_21 
ROOT
HETATM    1  O   UNK N   1     130.084 166.592 177.434  0.00  0.00    -0.380 OA
HETATM    2  C   UNK N   1     132.547 166.346 177.775  0.00  0.00     0.016 C 
HETATM    3  C   UNK N   1     132.619 165.544 176.421  0.00  0.00     0.011 C 
HETATM    4  C   UNK N   1     133.280 166.268 175.177  0.00  0.00    -0.043 C 
HETATM    5  C   UNK N   1     131.217 164.892 176.139  0.00  0.00     0.043 C 
HETATM    6  C   UNK N   1     133.888 167.075 178.043  0.00  0.00     0.017 C 
HETATM    7  C   UNK N   1     130.266 165.174 177.330  0.00  0.00     0.155 C 
HETATM    8  C   UNK N   1     132.152 165.310 178.856  0.00  0.00    -0.002 A 
HETATM    9  C   UNK N   1     131.307 167.295 177.736  0.00  0.00     0.183 C 
HETATM   10  C   UNK N   1     134.599 166.943 175.643  0.00  0.00     0.009 C 
HETATM   11  C   UNK N   1     134.383 167.886 176.842  0.00  0.00     0.002 C 
HETATM   12  C   UNK N   1     130.934 164.692 178.590  0.00  0.00    -0.019 A 
HETATM   13  C   UNK N   1     133.630 165.203 174.110  0.00  0.00     0.015 C 
HETATM   14  C   UNK N   1     132.398 167.335 174.468  0.00  0.00     0.015 C 
HETATM   15  C   UNK N   1     132.871 164.943 180.016  0.00  0.00     0.107 A 
HETATM   16  C   UNK N   1     130.395 163.732 179.445  0.00  0.00     0.021 A 
HETATM   17  C   UNK N   1     131.093 163.342 180.606  0.00  0.00    -0.018 A 
HETATM   18  C   UNK N   1     132.361 163.947 180.880  0.00  0.00     0.106 A 
ENDROOT
BRANCH  17  19
HETATM   19  C   UNK N   1     130.462 162.301 181.534  0.00  0.00     0.013 C 
HETATM   20  C   UNK N   1     129.555 161.345 180.752  0.00  0.00     0.015 C 
HETATM   21  C   UNK N   1     129.696 162.979 182.679  0.00  0.00     0.015 C 
ENDBRANCH  17  19
BRANCH  18  22
HETATM   22  O   UNK N   1     133.118 163.596 181.947  0.00  0.00    -0.357 OA
HETATM   23  H   UNK N   1     133.298 162.699 182.243  0.00  0.00     0.218 HD
ENDBRANCH  18  22
BRANCH  15  24
HETATM   24  O   UNK N   1     134.052 165.532 180.308  0.00  0.00    -0.357 OA
HETATM   25  H   UNK N   1     134.907 165.149 180.070  0.00  0.00     0.218 HD
ENDBRANCH  15  24
TORSDOF 3
ENDMDL
MODEL 8
REMARK VINA RESULT:      -6.7     32.904     36.244
REMARK  3 active torsions:
REMARK  status: ('A' for Active; 'I' for Inactive)
REMARK    1  A    between atoms: O_2  and  C_17 
REMARK    2  A    between atoms: O_3  and  C_20 
REMARK    3  A    between atoms: C_19  and  C_21 
ROOT
HETATM    1  O   UNK N   1     150.091 155.456 153.050  0.00  0.00    -0.380 OA
HETATM    2  C   UNK N   1     152.319 156.253 152.248  0.00  0.00     0.016 C 
HETATM    3  C   UNK N   1     151.675 157.663 151.969  0.00  0.00     0.011 C 
HETATM    4  C   UNK N   1     152.063 158.849 152.945  0.00  0.00    -0.043 C 
HETATM    5  C   UNK N   1     150.133 157.481 151.729  0.00  0.00     0.043 C 
HETATM    6  C   UNK N   1     153.826 156.402 152.575  0.00  0.00     0.017 C 
HETATM    7  C   UNK N   1     149.780 155.972 151.750  0.00  0.00     0.155 C 
HETATM    8  C   UNK N   1     152.016 155.397 150.992  0.00  0.00    -0.002 A 
HETATM    9  C   UNK N   1     151.497 155.532 153.364  0.00  0.00     0.183 C 
HETATM   10  C   UNK N   1     153.602 158.829 153.157  0.00  0.00     0.009 C 
HETATM   11  C   UNK N   1     154.109 157.459 153.646  0.00  0.00     0.002 C 
HETATM   12  C   UNK N   1     150.653 155.270 150.744  0.00  0.00    -0.019 A 
HETATM   13  C   UNK N   1     151.682 160.189 152.273  0.00  0.00     0.015 C 
HETATM   14  C   UNK N   1     151.368 158.836 154.336  0.00  0.00     0.015 C 
HETATM   15  C   UNK N   1     152.936 154.776 150.118  0.00  0.00     0.107 A 
HETATM   16  C   UNK N   1     150.169 154.533 149.664  0.00  0.00     0.021 A 
HETATM   17  C   UNK N   1     151.063 153.909 148.772  0.00  0.00    -0.018 A 
HETATM   18  C   UNK N   1     152.469 154.052 148.997  0.00  0.00     0.106 A 
ENDROOT
BRANCH  17  19
HETATM   19  C   UNK N   1     150.496 153.089 147.610  0.00  0.00     0.013 C 
HETATM   20  C   UNK N   1     150.455 153.917 146.321  0.00  0.00     0.015 C 
HETATM   21  C   UNK N   1     149.108 152.534 147.956  0.00  0.00     0.015 C 
ENDBRANCH  17  19
BRANCH  18  22
HETATM   22  O   UNK N   1     153.397 153.525 148.162  0.00  0.00    -0.357 OA
HETATM   23  H   UNK N   1     154.350 153.622 148.241  0.00  0.00     0.218 HD
ENDBRANCH  18  22
BRANCH  15  24
HETATM   24  O   UNK N   1     154.266 154.872 150.337  0.00  0.00    -0.357 OA
HETATM   25  H   UNK N   1     154.911 154.265 149.952  0.00  0.00     0.218 HD
ENDBRANCH  15  24
TORSDOF 3
ENDMDL
MODEL 9
REMARK VINA RESULT:      -6.7     38.458     42.343
REMARK  3 active torsions:
REMARK  status: ('A' for Active; 'I' for Inactive)
REMARK    1  A    between atoms: O_2  and  C_17 
REMARK    2  A    between atoms: O_3  and  C_20 
REMARK    3  A    between atoms: C_19  and  C_21 
ROOT
HETATM    1  O   UNK N   1     149.278 151.340 145.952  0.00  0.00    -0.380 OA
HETATM    2  C   UNK N   1     151.492 150.345 146.545  0.00  0.00     0.016 C 
HETATM    3  C   UNK N   1     152.025 151.798 146.842  0.00  0.00     0.011 C 
HETATM    4  C   UNK N   1     152.261 152.194 148.358  0.00  0.00    -0.043 C 
HETATM    5  C   UNK N   1     151.182 152.831 146.011  0.00  0.00     0.043 C 
HETATM    6  C   UNK N   1     152.244 149.305 147.414  0.00  0.00     0.017 C 
HETATM    7  C   UNK N   1     150.176 152.071 145.108  0.00  0.00     0.155 C 
HETATM    8  C   UNK N   1     151.653 150.143 145.018  0.00  0.00    -0.002 A 
HETATM    9  C   UNK N   1     149.941 150.326 146.736  0.00  0.00     0.183 C 
HETATM   10  C   UNK N   1     153.015 151.031 149.059  0.00  0.00     0.009 C 
HETATM   11  C   UNK N   1     152.291 149.681 148.897  0.00  0.00     0.002 C 
HETATM   12  C   UNK N   1     150.947 151.083 144.273  0.00  0.00    -0.019 A 
HETATM   13  C   UNK N   1     153.156 153.454 148.408  0.00  0.00     0.015 C 
HETATM   14  C   UNK N   1     150.981 152.525 149.177  0.00  0.00     0.015 C 
HETATM   15  C   UNK N   1     152.410 149.159 144.344  0.00  0.00     0.107 A 
HETATM   16  C   UNK N   1     150.954 151.072 142.880  0.00  0.00     0.021 A 
HETATM   17  C   UNK N   1     151.707 150.106 142.180  0.00  0.00    -0.018 A 
HETATM   18  C   UNK N   1     152.460 149.149 142.931  0.00  0.00     0.106 A 
ENDROOT
BRANCH  17  19
HETATM   19  C   UNK N   1     151.674 150.110 140.650  0.00  0.00     0.013 C 
HETATM   20  C   UNK N   1     151.354 151.507 140.109  0.00  0.00     0.015 C 
HETATM   21  C   UNK N   1     150.678 149.069 140.120  0.00  0.00     0.015 C 
ENDBRANCH  17  19
BRANCH  18  22
HETATM   22  O   UNK N   1     153.247 148.218 142.339  0.00  0.00    -0.357 OA
HETATM   23  H   UNK N   1     152.991 147.318 142.119  0.00  0.00     0.218 HD
ENDBRANCH  18  22
BRANCH  15  24
HETATM   24  O   UNK N   1     153.099 148.226 145.038  0.00  0.00    -0.357 OA
HETATM   25  H   UNK N   1     153.892 148.428 145.552  0.00  0.00     0.218 HD
ENDBRANCH  15  24
TORSDOF 3
ENDMDL
