MODEL 1
REMARK VINA RESULT:      -6.9      0.000      0.000
REMARK  3 active torsions:
REMARK  status: ('A' for Active; 'I' for Inactive)
REMARK    1  A    between atoms: O_2  and  C_17 
REMARK    2  A    between atoms: O_3  and  C_20 
REMARK    3  A    between atoms: C_19  and  C_21 
ROOT
HETATM    1  O   UNK N   1     135.269 166.021 179.799  0.00  0.00    -0.380 OA
HETATM    2  C   UNK N   1     135.358 168.073 178.376  0.00  0.00     0.016 C 
HETATM    3  C   UNK N   1     135.378 168.941 179.690  0.00  0.00     0.011 C 
HETATM    4  C   UNK N   1     136.741 169.650 180.076  0.00  0.00    -0.043 C 
HETATM    5  C   UNK N   1     134.705 168.125 180.852  0.00  0.00     0.043 C 
HETATM    6  C   UNK N   1     136.091 168.812 177.228  0.00  0.00     0.017 C 
HETATM    7  C   UNK N   1     134.161 166.784 180.295  0.00  0.00     0.155 C 
HETATM    8  C   UNK N   1     133.864 167.772 178.095  0.00  0.00    -0.002 A 
HETATM    9  C   UNK N   1     135.942 166.659 178.694  0.00  0.00     0.183 C 
HETATM   10  C   UNK N   1     137.325 170.322 178.803  0.00  0.00     0.009 C 
HETATM   11  C   UNK N   1     137.474 169.331 177.633  0.00  0.00     0.002 C 
HETATM   12  C   UNK N   1     133.247 167.090 179.139  0.00  0.00    -0.019 A 
HETATM   13  C   UNK N   1     136.448 170.756 181.118  0.00  0.00     0.015 C 
HETATM   14  C   UNK N   1     137.830 168.731 180.698  0.00  0.00     0.015 C 
HETATM   15  C   UNK N   1     133.107 168.111 176.951  0.00  0.00     0.107 A 
HETATM   16  C   UNK N   1     131.905 166.719 179.081  0.00  0.00     0.021 A 
HETATM   17  C   UNK N   1     131.123 167.049 177.956  0.00  0.00    -0.018 A 
HETATM   18  C   UNK N   1     131.735 167.775 176.884  0.00  0.00     0.106 A 
ENDROOT
BRANCH  17  19
HETATM   19  C   UNK N   1     129.658 166.606 177.917  0.00  0.00     0.013 C 
HETATM   20  C   UNK N   1     128.875 167.192 179.096  0.00  0.00     0.015 C 
HETATM   21  C   UNK N   1     129.550 165.075 177.884  0.00  0.00     0.015 C 
ENDBRANCH  17  19
BRANCH  18  22
HETATM   22  O   UNK N   1     131.046 168.173 175.789  0.00  0.00    -0.357 OA
HETATM   23  H   UNK N   1     131.214 167.898 174.883  0.00  0.00     0.218 HD
ENDBRANCH  18  22
BRANCH  15  24
HETATM   24  O   UNK N   1     133.680 168.764 175.915  0.00  0.00    -0.357 OA
HETATM   25  H   UNK N   1     133.864 169.713 175.926  0.00  0.00     0.218 HD
ENDBRANCH  15  24
TORSDOF 3
ENDMDL
MODEL 2
REMARK VINA RESULT:      -6.8     55.775     58.362
REMARK  3 active torsions:
REMARK  status: ('A' for Active; 'I' for Inactive)
REMARK    1  A    between atoms: O_2  and  C_17 
REMARK    2  A    between atoms: O_3  and  C_20 
REMARK    3  A    between atoms: C_19  and  C_21 
ROOT
HETATM    1  O   UNK N   1     168.159 157.806 133.230  0.00  0.00    -0.380 OA
HETATM    2  C   UNK N   1     166.416 158.119 131.466  0.00  0.00     0.016 C 
HETATM    3  C   UNK N   1     167.513 157.810 130.379  0.00  0.00     0.011 C 
HETATM    4  C   UNK N   1     167.428 156.414 129.632  0.00  0.00    -0.043 C 
HETATM    5  C   UNK N   1     168.928 158.162 130.964  0.00  0.00     0.043 C 
HETATM    6  C   UNK N   1     165.014 157.703 130.955  0.00  0.00     0.017 C 
HETATM    7  C   UNK N   1     168.763 158.784 132.375  0.00  0.00     0.155 C 
HETATM    8  C   UNK N   1     166.561 159.627 131.790  0.00  0.00    -0.002 A 
HETATM    9  C   UNK N   1     166.829 157.436 132.809  0.00  0.00     0.183 C 
HETATM   10  C   UNK N   1     165.954 156.172 129.207  0.00  0.00     0.009 C 
HETATM   11  C   UNK N   1     164.976 156.279 130.393  0.00  0.00     0.002 C 
HETATM   12  C   UNK N   1     167.826 159.957 132.265  0.00  0.00    -0.019 A 
HETATM   13  C   UNK N   1     168.297 156.481 128.354  0.00  0.00     0.015 C 
HETATM   14  C   UNK N   1     167.922 155.183 130.442  0.00  0.00     0.015 C 
HETATM   15  C   UNK N   1     165.591 160.645 131.650  0.00  0.00     0.107 A 
HETATM   16  C   UNK N   1     168.159 161.262 132.621  0.00  0.00     0.021 A 
HETATM   17  C   UNK N   1     167.214 162.300 132.485  0.00  0.00    -0.018 A 
HETATM   18  C   UNK N   1     165.916 161.983 131.972  0.00  0.00     0.106 A 
ENDROOT
BRANCH  17  19
HETATM   19  C   UNK N   1     167.608 163.718 132.906  0.00  0.00     0.013 C 
HETATM   20  C   UNK N   1     169.112 163.947 132.730  0.00  0.00     0.015 C 
HETATM   21  C   UNK N   1     167.169 164.003 134.350  0.00  0.00     0.015 C 
ENDBRANCH  17  19
BRANCH  18  22
HETATM   22  O   UNK N   1     164.966 162.926 131.765  0.00  0.00    -0.357 OA
HETATM   23  H   UNK N   1     165.123 163.856 131.581  0.00  0.00     0.218 HD
ENDBRANCH  18  22
BRANCH  15  24
HETATM   24  O   UNK N   1     164.349 160.356 131.200  0.00  0.00    -0.357 OA
HETATM   25  H   UNK N   1     163.670 161.027 131.055  0.00  0.00     0.218 HD
ENDBRANCH  15  24
TORSDOF 3
ENDMDL
MODEL 3
REMARK VINA RESULT:      -6.6     33.163     35.040
REMARK  3 active torsions:
REMARK  status: ('A' for Active; 'I' for Inactive)
REMARK    1  A    between atoms: O_2  and  C_17 
REMARK    2  A    between atoms: O_3  and  C_20 
REMARK    3  A    between atoms: C_19  and  C_21 
ROOT
HETATM    1  O   UNK N   1     150.079 155.499 153.173  0.00  0.00    -0.380 OA
HETATM    2  C   UNK N   1     152.281 156.309 152.312  0.00  0.00     0.016 C 
HETATM    3  C   UNK N   1     151.619 157.713 152.043  0.00  0.00     0.011 C 
HETATM    4  C   UNK N   1     152.023 158.906 153.004  0.00  0.00    -0.043 C 
HETATM    5  C   UNK N   1     150.073 157.519 151.842  0.00  0.00     0.043 C 
HETATM    6  C   UNK N   1     153.794 156.470 152.601  0.00  0.00     0.017 C 
HETATM    7  C   UNK N   1     149.732 156.007 151.878  0.00  0.00     0.155 C 
HETATM    8  C   UNK N   1     151.952 155.446 151.068  0.00  0.00    -0.002 A 
HETATM    9  C   UNK N   1     151.492 155.587 153.451  0.00  0.00     0.183 C 
HETATM   10  C   UNK N   1     153.566 158.899 153.178  0.00  0.00     0.009 C 
HETATM   11  C   UNK N   1     154.095 157.534 153.660  0.00  0.00     0.002 C 
HETATM   12  C   UNK N   1     150.584 155.308 150.854  0.00  0.00    -0.019 A 
HETATM   13  C   UNK N   1     151.615 160.241 152.336  0.00  0.00     0.015 C 
HETATM   14  C   UNK N   1     151.363 158.894 154.412  0.00  0.00     0.015 C 
HETATM   15  C   UNK N   1     152.855 154.827 150.173  0.00  0.00     0.107 A 
HETATM   16  C   UNK N   1     150.079 154.563 149.790  0.00  0.00     0.021 A 
HETATM   17  C   UNK N   1     150.956 153.941 148.878  0.00  0.00    -0.018 A 
HETATM   18  C   UNK N   1     152.366 154.095 149.067  0.00  0.00     0.106 A 
ENDROOT
BRANCH  17  19
HETATM   19  C   UNK N   1     150.366 153.112 147.734  0.00  0.00     0.013 C 
HETATM   20  C   UNK N   1     150.407 153.889 146.414  0.00  0.00     0.015 C 
HETATM   21  C   UNK N   1     148.938 152.657 148.065  0.00  0.00     0.015 C 
ENDBRANCH  17  19
BRANCH  18  22
HETATM   22  O   UNK N   1     153.276 153.571 148.212  0.00  0.00    -0.357 OA
HETATM   23  H   UNK N   1     154.012 153.000 148.448  0.00  0.00     0.218 HD
ENDBRANCH  18  22
BRANCH  15  24
HETATM   24  O   UNK N   1     154.189 154.934 150.359  0.00  0.00    -0.357 OA
HETATM   25  H   UNK N   1     154.732 155.606 149.924  0.00  0.00     0.218 HD
ENDBRANCH  15  24
TORSDOF 3
ENDMDL
MODEL 4
REMARK VINA RESULT:      -6.6     27.653     29.812
REMARK  3 active torsions:
REMARK  status: ('A' for Active; 'I' for Inactive)
REMARK    1  A    between atoms: O_2  and  C_17 
REMARK    2  A    between atoms: O_3  and  C_20 
REMARK    3  A    between atoms: C_19  and  C_21 
ROOT
HETATM    1  O   UNK N   1     149.964 157.197 154.558  0.00  0.00    -0.380 OA
HETATM    2  C   UNK N   1     151.242 159.343 154.643  0.00  0.00     0.016 C 
HETATM    3  C   UNK N   1     152.543 158.514 154.961  0.00  0.00     0.011 C 
HETATM    4  C   UNK N   1     153.630 158.391 153.815  0.00  0.00    -0.043 C 
HETATM    5  C   UNK N   1     152.131 157.154 155.632  0.00  0.00     0.043 C 
HETATM    6  C   UNK N   1     151.604 160.654 153.901  0.00  0.00     0.017 C 
HETATM    7  C   UNK N   1     150.595 157.125 155.843  0.00  0.00     0.155 C 
HETATM    8  C   UNK N   1     150.532 159.549 156.004  0.00  0.00    -0.002 A 
HETATM    9  C   UNK N   1     150.240 158.432 153.864  0.00  0.00     0.183 C 
HETATM   10  C   UNK N   1     153.849 159.796 153.190  0.00  0.00     0.009 C 
HETATM   11  C   UNK N   1     152.533 160.434 152.705  0.00  0.00     0.002 C 
HETATM   12  C   UNK N   1     150.205 158.349 156.628  0.00  0.00    -0.019 A 
HETATM   13  C   UNK N   1     154.964 157.925 154.443  0.00  0.00     0.015 C 
HETATM   14  C   UNK N   1     153.300 157.385 152.676  0.00  0.00     0.015 C 
HETATM   15  C   UNK N   1     150.209 160.767 156.643  0.00  0.00     0.107 A 
HETATM   16  C   UNK N   1     149.555 158.316 157.860  0.00  0.00     0.021 A 
HETATM   17  C   UNK N   1     149.227 159.515 158.524  0.00  0.00    -0.018 A 
HETATM   18  C   UNK N   1     149.581 160.758 157.909  0.00  0.00     0.106 A 
ENDROOT
BRANCH  17  19
HETATM   19  C   UNK N   1     148.493 159.441 159.866  0.00  0.00     0.013 C 
HETATM   20  C   UNK N   1     148.837 158.146 160.610  0.00  0.00     0.015 C 
HETATM   21  C   UNK N   1     146.977 159.582 159.670  0.00  0.00     0.015 C 
ENDBRANCH  17  19
BRANCH  18  22
HETATM   22  O   UNK N   1     149.346 161.954 158.500  0.00  0.00    -0.357 OA
HETATM   23  H   UNK N   1     149.070 162.761 158.056  0.00  0.00     0.218 HD
ENDBRANCH  18  22
BRANCH  15  24
HETATM   24  O   UNK N   1     150.505 161.950 156.059  0.00  0.00    -0.357 OA
HETATM   25  H   UNK N   1     149.832 162.586 155.784  0.00  0.00     0.218 HD
ENDBRANCH  15  24
TORSDOF 3
ENDMDL
MODEL 5
REMARK VINA RESULT:      -6.6     30.163     32.463
REMARK  3 active torsions:
REMARK  status: ('A' for Active; 'I' for Inactive)
REMARK    1  A    between atoms: O_2  and  C_17 
REMARK    2  A    between atoms: O_3  and  C_20 
REMARK    3  A    between atoms: C_19  and  C_21 
ROOT
HETATM    1  O   UNK N   1     152.639 158.292 153.776  0.00  0.00    -0.380 OA
HETATM    2  C   UNK N   1     150.388 157.952 152.745  0.00  0.00     0.016 C 
HETATM    3  C   UNK N   1     151.092 157.800 151.345  0.00  0.00     0.011 C 
HETATM    4  C   UNK N   1     151.145 156.349 150.708  0.00  0.00    -0.043 C 
HETATM    5  C   UNK N   1     152.467 158.559 151.378  0.00  0.00     0.043 C 
HETATM    6  C   UNK N   1     149.067 157.143 152.778  0.00  0.00     0.017 C 
HETATM    7  C   UNK N   1     152.625 159.282 152.740  0.00  0.00     0.155 C 
HETATM    8  C   UNK N   1     150.214 159.476 152.964  0.00  0.00    -0.002 A 
HETATM    9  C   UNK N   1     151.401 157.556 153.867  0.00  0.00     0.183 C 
HETATM   10  C   UNK N   1     149.741 155.700 150.843  0.00  0.00     0.009 C 
HETATM   11  C   UNK N   1     149.233 155.699 152.298  0.00  0.00     0.002 C 
HETATM   12  C   UNK N   1     151.423 160.164 152.948  0.00  0.00    -0.019 A 
HETATM   13  C   UNK N   1     151.478 156.480 149.203  0.00  0.00     0.015 C 
HETATM   14  C   UNK N   1     152.202 155.384 151.315  0.00  0.00     0.015 C 
HETATM   15  C   UNK N   1     149.014 160.197 153.157  0.00  0.00     0.107 A 
HETATM   16  C   UNK N   1     151.485 161.544 153.133  0.00  0.00     0.021 A 
HETATM   17  C   UNK N   1     150.304 162.290 153.321  0.00  0.00    -0.018 A 
HETATM   18  C   UNK N   1     149.049 161.602 153.312  0.00  0.00     0.106 A 
ENDROOT
BRANCH  17  19
HETATM   19  C   UNK N   1     150.411 163.801 153.543  0.00  0.00     0.013 C 
HETATM   20  C   UNK N   1     151.695 164.359 152.919  0.00  0.00     0.015 C 
HETATM   21  C   UNK N   1     150.327 164.143 155.037  0.00  0.00     0.015 C 
ENDBRANCH  17  19
BRANCH  18  22
HETATM   22  O   UNK N   1     147.865 162.248 153.438  0.00  0.00    -0.357 OA
HETATM   23  H   UNK N   1     147.060 161.884 153.817  0.00  0.00     0.218 HD
ENDBRANCH  18  22
BRANCH  15  24
HETATM   24  O   UNK N   1     147.824 159.557 153.187  0.00  0.00    -0.357 OA
HETATM   25  H   UNK N   1     147.557 158.905 152.526  0.00  0.00     0.218 HD
ENDBRANCH  15  24
TORSDOF 3
ENDMDL
MODEL 6
REMARK VINA RESULT:      -6.6      2.155      5.884
REMARK  3 active torsions:
REMARK  status: ('A' for Active; 'I' for Inactive)
REMARK    1  A    between atoms: O_2  and  C_17 
REMARK    2  A    between atoms: O_3  and  C_20 
REMARK    3  A    between atoms: C_19  and  C_21 
ROOT
HETATM    1  O   UNK N   1     136.374 166.499 179.091  0.00  0.00    -0.380 OA
HETATM    2  C   UNK N   1     134.102 167.433 178.633  0.00  0.00     0.016 C 
HETATM    3  C   UNK N   1     134.583 167.794 177.178  0.00  0.00     0.011 C 
HETATM    4  C   UNK N   1     134.014 166.923 175.983  0.00  0.00    -0.043 C 
HETATM    5  C   UNK N   1     136.144 167.969 177.184  0.00  0.00     0.043 C 
HETATM    6  C   UNK N   1     132.575 167.167 178.648  0.00  0.00     0.017 C 
HETATM    7  C   UNK N   1     136.675 167.823 178.634  0.00  0.00     0.155 C 
HETATM    8  C   UNK N   1     134.558 168.609 179.530  0.00  0.00    -0.002 A 
HETATM    9  C   UNK N   1     134.957 166.238 179.167  0.00  0.00     0.183 C 
HETATM   10  C   UNK N   1     132.481 166.761 176.177  0.00  0.00     0.009 C 
HETATM   11  C   UNK N   1     132.123 166.189 177.561  0.00  0.00     0.002 C 
HETATM   12  C   UNK N   1     135.936 168.802 179.506  0.00  0.00    -0.019 A 
HETATM   13  C   UNK N   1     134.258 167.680 174.656  0.00  0.00     0.015 C 
HETATM   14  C   UNK N   1     134.646 165.513 175.813  0.00  0.00     0.015 C 
HETATM   15  C   UNK N   1     133.758 169.465 180.320  0.00  0.00     0.107 A 
HETATM   16  C   UNK N   1     136.550 169.807 180.251  0.00  0.00     0.021 A 
HETATM   17  C   UNK N   1     135.776 170.680 181.043  0.00  0.00    -0.018 A 
HETATM   18  C   UNK N   1     134.355 170.513 181.058  0.00  0.00     0.106 A 
ENDROOT
BRANCH  17  19
HETATM   19  C   UNK N   1     136.486 171.758 181.865  0.00  0.00     0.013 C 
HETATM   20  C   UNK N   1     137.815 172.159 181.217  0.00  0.00     0.015 C 
HETATM   21  C   UNK N   1     136.694 171.294 183.314  0.00  0.00     0.015 C 
ENDBRANCH  17  19
BRANCH  18  22
HETATM   22  O   UNK N   1     133.534 171.337 181.752  0.00  0.00    -0.357 OA
HETATM   23  H   UNK N   1     133.598 171.541 182.690  0.00  0.00     0.218 HD
ENDBRANCH  18  22
BRANCH  15  24
HETATM   24  O   UNK N   1     132.417 169.298 180.373  0.00  0.00    -0.357 OA
HETATM   25  H   UNK N   1     131.811 169.984 180.680  0.00  0.00     0.218 HD
ENDBRANCH  15  24
TORSDOF 3
ENDMDL
MODEL 7
REMARK VINA RESULT:      -6.6     59.855     61.460
REMARK  3 active torsions:
REMARK  status: ('A' for Active; 'I' for Inactive)
REMARK    1  A    between atoms: O_2  and  C_17 
REMARK    2  A    between atoms: O_3  and  C_20 
REMARK    3  A    between atoms: C_19  and  C_21 
ROOT
HETATM    1  O   UNK N   1     136.762 149.927 121.476  0.00  0.00    -0.380 OA
HETATM    2  C   UNK N   1     138.233 147.994 122.063  0.00  0.00     0.016 C 
HETATM    3  C   UNK N   1     139.327 148.578 121.092  0.00  0.00     0.011 C 
HETATM    4  C   UNK N   1     140.615 149.226 121.748  0.00  0.00    -0.043 C 
HETATM    5  C   UNK N   1     138.623 149.463 120.001  0.00  0.00     0.043 C 
HETATM    6  C   UNK N   1     138.899 147.185 123.204  0.00  0.00     0.017 C 
HETATM    7  C   UNK N   1     137.085 149.388 120.188  0.00  0.00     0.155 C 
HETATM    8  C   UNK N   1     137.272 147.172 121.167  0.00  0.00    -0.002 A 
HETATM    9  C   UNK N   1     137.324 149.163 122.563  0.00  0.00     0.183 C 
HETATM   10  C   UNK N   1     141.128 148.279 122.867  0.00  0.00     0.009 C 
HETATM   11  C   UNK N   1     140.034 147.942 123.898  0.00  0.00     0.002 C 
HETATM   12  C   UNK N   1     136.679 147.938 120.169  0.00  0.00    -0.019 A 
HETATM   13  C   UNK N   1     141.717 149.344 120.668  0.00  0.00     0.015 C 
HETATM   14  C   UNK N   1     140.426 150.648 122.347  0.00  0.00     0.015 C 
HETATM   15  C   UNK N   1     136.963 145.796 121.254  0.00  0.00     0.107 A 
HETATM   16  C   UNK N   1     135.777 147.389 119.260  0.00  0.00     0.021 A 
HETATM   17  C   UNK N   1     135.455 146.018 119.319  0.00  0.00    -0.018 A 
HETATM   18  C   UNK N   1     136.077 145.209 120.322  0.00  0.00     0.106 A 
ENDROOT
BRANCH  17  19
HETATM   19  C   UNK N   1     134.443 145.452 118.319  0.00  0.00     0.013 C 
HETATM   20  C   UNK N   1     135.136 145.000 117.030  0.00  0.00     0.015 C 
HETATM   21  C   UNK N   1     133.335 146.473 118.023  0.00  0.00     0.015 C 
ENDBRANCH  17  19
BRANCH  18  22
HETATM   22  O   UNK N   1     135.861 143.875 120.418  0.00  0.00    -0.357 OA
HETATM   23  H   UNK N   1     136.326 143.190 119.930  0.00  0.00     0.218 HD
ENDBRANCH  18  22
BRANCH  15  24
HETATM   24  O   UNK N   1     137.515 145.027 122.219  0.00  0.00    -0.357 OA
HETATM   25  H   UNK N   1     138.075 144.262 122.030  0.00  0.00     0.218 HD
ENDBRANCH  15  24
TORSDOF 3
ENDMDL
MODEL 8
REMARK VINA RESULT:      -6.5     72.747     74.807
REMARK  3 active torsions:
REMARK  status: ('A' for Active; 'I' for Inactive)
REMARK    1  A    between atoms: O_2  and  C_17 
REMARK    2  A    between atoms: O_3  and  C_20 
REMARK    3  A    between atoms: C_19  and  C_21 
ROOT
HETATM    1  O   UNK N   1     168.343 148.985 112.211  0.00  0.00    -0.380 OA
HETATM    2  C   UNK N   1     167.102 151.069 112.815  0.00  0.00     0.016 C 
HETATM    3  C   UNK N   1     168.486 151.791 113.022  0.00  0.00     0.011 C 
HETATM    4  C   UNK N   1     168.923 152.859 111.936  0.00  0.00    -0.043 C 
HETATM    5  C   UNK N   1     169.578 150.715 113.368  0.00  0.00     0.043 C 
HETATM    6  C   UNK N   1     166.018 152.090 112.387  0.00  0.00     0.017 C 
HETATM    7  C   UNK N   1     168.910 149.320 113.485  0.00  0.00     0.155 C 
HETATM    8  C   UNK N   1     166.806 150.338 114.148  0.00  0.00    -0.002 A 
HETATM    9  C   UNK N   1     167.292 149.889 111.809  0.00  0.00     0.183 C 
HETATM   10  C   UNK N   1     167.709 153.779 111.634  0.00  0.00     0.009 C 
HETATM   11  C   UNK N   1     166.456 152.982 111.223  0.00  0.00     0.002 C 
HETATM   12  C   UNK N   1     167.791 149.416 114.487  0.00  0.00    -0.019 A 
HETATM   13  C   UNK N   1     170.058 153.729 112.524  0.00  0.00     0.015 C 
HETATM   14  C   UNK N   1     169.455 152.280 110.595  0.00  0.00     0.015 C 
HETATM   15  C   UNK N   1     165.700 150.513 115.011  0.00  0.00     0.107 A 
HETATM   16  C   UNK N   1     167.710 148.648 115.647  0.00  0.00     0.021 A 
HETATM   17  C   UNK N   1     166.623 148.806 116.530  0.00  0.00    -0.018 A 
HETATM   18  C   UNK N   1     165.614 149.770 116.211  0.00  0.00     0.106 A 
ENDROOT
BRANCH  17  19
HETATM   19  C   UNK N   1     166.555 147.930 117.784  0.00  0.00     0.013 C 
HETATM   20  C   UNK N   1     167.882 147.964 118.551  0.00  0.00     0.015 C 
HETATM   21  C   UNK N   1     166.157 146.491 117.428  0.00  0.00     0.015 C 
ENDBRANCH  17  19
BRANCH  18  22
HETATM   22  O   UNK N   1     164.562 150.018 117.027  0.00  0.00    -0.357 OA
HETATM   23  H   UNK N   1     164.383 150.846 117.483  0.00  0.00     0.218 HD
ENDBRANCH  18  22
BRANCH  15  24
HETATM   24  O   UNK N   1     164.722 151.393 114.706  0.00  0.00    -0.357 OA
HETATM   25  H   UNK N   1     164.889 152.327 114.521  0.00  0.00     0.218 HD
ENDBRANCH  15  24
TORSDOF 3
ENDMDL
MODEL 9
REMARK VINA RESULT:      -6.5     55.572     57.411
REMARK  3 active torsions:
REMARK  status: ('A' for Active; 'I' for Inactive)
REMARK    1  A    between atoms: O_2  and  C_17 
REMARK    2  A    between atoms: O_3  and  C_20 
REMARK    3  A    between atoms: C_19  and  C_21 
ROOT
HETATM    1  O   UNK N   1     160.197 121.810 155.162  0.00  0.00    -0.380 OA
HETATM    2  C   UNK N   1     157.945 122.533 154.356  0.00  0.00     0.016 C 
HETATM    3  C   UNK N   1     157.907 121.261 153.428  0.00  0.00     0.011 C 
HETATM    4  C   UNK N   1     156.927 120.086 153.839  0.00  0.00    -0.043 C 
HETATM    5  C   UNK N   1     159.381 120.814 153.114  0.00  0.00     0.043 C 
HETATM    6  C   UNK N   1     156.508 122.952 154.758  0.00  0.00     0.017 C 
HETATM    7  C   UNK N   1     160.373 121.828 153.740  0.00  0.00     0.155 C 
HETATM    8  C   UNK N   1     158.729 123.608 153.563  0.00  0.00    -0.002 A 
HETATM    9  C   UNK N   1     158.883 122.246 155.572  0.00  0.00     0.183 C 
HETATM   10  C   UNK N   1     155.551 120.701 154.213  0.00  0.00     0.009 C 
HETATM   11  C   UNK N   1     155.670 121.790 155.297  0.00  0.00     0.002 C 
HETATM   12  C   UNK N   1     160.020 123.203 153.239  0.00  0.00    -0.019 A 
HETATM   13  C   UNK N   1     156.728 119.157 152.618  0.00  0.00     0.015 C 
HETATM   14  C   UNK N   1     157.406 119.184 155.011  0.00  0.00     0.015 C 
HETATM   15  C   UNK N   1     158.285 124.885 153.152  0.00  0.00     0.107 A 
HETATM   16  C   UNK N   1     160.893 124.028 152.533  0.00  0.00     0.021 A 
HETATM   17  C   UNK N   1     160.475 125.304 152.103  0.00  0.00    -0.018 A 
HETATM   18  C   UNK N   1     159.141 125.726 152.404  0.00  0.00     0.106 A 
ENDROOT
BRANCH  17  19
HETATM   19  C   UNK N   1     161.467 126.192 151.348  0.00  0.00     0.013 C 
HETATM   20  C   UNK N   1     162.494 125.346 150.588  0.00  0.00     0.015 C 
HETATM   21  C   UNK N   1     162.157 127.177 152.301  0.00  0.00     0.015 C 
ENDBRANCH  17  19
BRANCH  18  22
HETATM   22  O   UNK N   1     158.643 126.915 151.988  0.00  0.00    -0.357 OA
HETATM   23  H   UNK N   1     157.902 127.387 152.379  0.00  0.00     0.218 HD
ENDBRANCH  18  22
BRANCH  15  24
HETATM   24  O   UNK N   1     157.040 125.312 153.459  0.00  0.00    -0.357 OA
HETATM   25  H   UNK N   1     156.822 126.241 153.612  0.00  0.00     0.218 HD
ENDBRANCH  15  24
TORSDOF 3
ENDMDL
