MODEL 1
REMARK VINA RESULT:      -7.6      0.000      0.000
REMARK  4 active torsions:
REMARK  status: ('A' for Active; 'I' for Inactive)
REMARK    1  A    between atoms: O_2  and  C_14 
REMARK    2  A    between atoms: O_4  and  C_19 
REMARK    3  A    between atoms: O_5  and  C_22 
REMARK    4  A    between atoms: C_21  and  C_23 
ROOT
HETATM    1  O   UNK N   1     152.083 152.460 146.308  0.00  0.00    -0.312 OA
HETATM    2  O   UNK N   1     150.065 153.446 146.339  0.00  0.00    -0.264 OA
HETATM    3  C   UNK N   1     151.484 150.323 146.911  0.00  0.00     0.049 C 
HETATM    4  C   UNK N   1     150.220 151.056 146.349  0.00  0.00     0.085 C 
HETATM    5  C   UNK N   1     151.632 150.323 148.495  0.00  0.00    -0.040 C 
HETATM    6  C   UNK N   1     152.586 151.174 146.224  0.00  0.00     0.171 C 
HETATM    7  C   UNK N   1     148.951 150.740 147.193  0.00  0.00     0.025 C 
HETATM    8  C   UNK N   1     150.290 149.874 149.121  0.00  0.00     0.009 C 
HETATM    9  C   UNK N   1     150.107 150.730 144.828  0.00  0.00     0.006 A 
HETATM   10  C   UNK N   1     149.146 150.802 148.704  0.00  0.00     0.002 C 
HETATM   11  C   UNK N   1     152.685 150.768 144.737  0.00  0.00     0.181 C 
HETATM   12  C   UNK N   1     150.748 152.439 146.426  0.00  0.00     0.273 C 
HETATM   13  C   UNK N   1     151.318 150.610 144.078  0.00  0.00    -0.016 A 
HETATM   14  C   UNK N   1     152.063 151.682 149.129  0.00  0.00     0.015 C 
HETATM   15  C   UNK N   1     152.715 149.291 148.889  0.00  0.00     0.015 C 
HETATM   16  C   UNK N   1     148.870 150.540 144.151  0.00  0.00     0.107 A 
HETATM   17  C   UNK N   1     151.271 150.298 142.715  0.00  0.00     0.021 A 
HETATM   18  C   UNK N   1     150.056 150.090 142.053  0.00  0.00    -0.018 A 
HETATM   19  C   UNK N   1     148.845 150.202 142.772  0.00  0.00     0.106 A 
ENDROOT
BRANCH  18  20
HETATM   20  C   UNK N   1     150.074 149.751 140.563  0.00  0.00     0.013 C 
HETATM   21  C   UNK N   1     150.987 148.548 140.279  0.00  0.00     0.015 C 
HETATM   22  C   UNK N   1     150.465 150.960 139.699  0.00  0.00     0.015 C 
ENDBRANCH  18  20
BRANCH  19  23
HETATM   23  O   UNK N   1     147.684 149.969 142.124  0.00  0.00    -0.357 OA
HETATM   24  H   UNK N   1     147.045 150.644 141.865  0.00  0.00     0.218 HD
ENDBRANCH  19  23
BRANCH  16  25
HETATM   25  O   UNK N   1     147.706 150.706 144.822  0.00  0.00    -0.357 OA
HETATM   26  H   UNK N   1     147.547 151.348 145.518  0.00  0.00     0.218 HD
ENDBRANCH  16  25
BRANCH  11  27
HETATM   27  O   UNK N   1     153.362 149.542 144.635  0.00  0.00    -0.388 OA
HETATM   28  H   UNK N   1     154.237 149.654 145.094  0.00  0.00     0.210 HD
ENDBRANCH  11  27
TORSDOF 4
ENDMDL
MODEL 2
REMARK VINA RESULT:      -7.4     18.016     20.068
REMARK  4 active torsions:
REMARK  status: ('A' for Active; 'I' for Inactive)
REMARK    1  A    between atoms: O_2  and  C_14 
REMARK    2  A    between atoms: O_4  and  C_19 
REMARK    3  A    between atoms: O_5  and  C_22 
REMARK    4  A    between atoms: C_21  and  C_23 
ROOT
HETATM    1  O   UNK N   1     136.737 139.538 153.503  0.00  0.00    -0.312 OA
HETATM    2  O   UNK N   1     138.205 138.893 151.929  0.00  0.00    -0.264 OA
HETATM    3  C   UNK N   1     135.925 141.453 152.520  0.00  0.00     0.049 C 
HETATM    4  C   UNK N   1     136.554 140.549 151.408  0.00  0.00     0.085 C 
HETATM    5  C   UNK N   1     136.870 142.598 153.092  0.00  0.00    -0.040 C 
HETATM    6  C   UNK N   1     135.628 140.361 153.584  0.00  0.00     0.171 C 
HETATM    7  C   UNK N   1     137.374 141.386 150.384  0.00  0.00     0.025 C 
HETATM    8  C   UNK N   1     137.491 143.370 151.904  0.00  0.00     0.009 C 
HETATM    9  C   UNK N   1     135.418 139.673 150.795  0.00  0.00     0.006 A 
HETATM   10  C   UNK N   1     138.295 142.436 150.995  0.00  0.00     0.002 C 
HETATM   11  C   UNK N   1     134.377 139.562 153.153  0.00  0.00     0.181 C 
HETATM   12  C   UNK N   1     137.320 139.646 152.301  0.00  0.00     0.273 C 
HETATM   13  C   UNK N   1     134.390 139.204 151.670  0.00  0.00    -0.016 A 
HETATM   14  C   UNK N   1     138.010 142.117 154.042  0.00  0.00     0.015 C 
HETATM   15  C   UNK N   1     136.005 143.588 153.908  0.00  0.00     0.015 C 
HETATM   16  C   UNK N   1     135.347 139.322 149.418  0.00  0.00     0.107 A 
HETATM   17  C   UNK N   1     133.337 138.433 151.166  0.00  0.00     0.021 A 
HETATM   18  C   UNK N   1     133.254 138.105 149.808  0.00  0.00    -0.018 A 
HETATM   19  C   UNK N   1     134.258 138.557 148.923  0.00  0.00     0.106 A 
ENDROOT
BRANCH  18  20
HETATM   20  C   UNK N   1     132.078 137.261 149.321  0.00  0.00     0.013 C 
HETATM   21  C   UNK N   1     130.916 138.147 148.848  0.00  0.00     0.015 C 
HETATM   22  C   UNK N   1     131.611 136.252 150.383  0.00  0.00     0.015 C 
ENDBRANCH  18  20
BRANCH  19  23
HETATM   23  O   UNK N   1     134.147 138.256 147.611  0.00  0.00    -0.357 OA
HETATM   24  H   UNK N   1     134.195 138.892 146.887  0.00  0.00     0.218 HD
ENDBRANCH  19  23
BRANCH  16  25
HETATM   25  O   UNK N   1     136.338 139.701 148.577  0.00  0.00    -0.357 OA
HETATM   26  H   UNK N   1     136.215 140.080 147.702  0.00  0.00     0.218 HD
ENDBRANCH  16  25
BRANCH  11  27
HETATM   27  O   UNK N   1     133.228 140.330 153.406  0.00  0.00    -0.388 OA
HETATM   28  H   UNK N   1     132.588 140.147 152.667  0.00  0.00     0.210 HD
ENDBRANCH  11  27
TORSDOF 4
ENDMDL
MODEL 3
REMARK VINA RESULT:      -7.3      3.224      7.044
REMARK  4 active torsions:
REMARK  status: ('A' for Active; 'I' for Inactive)
REMARK    1  A    between atoms: O_2  and  C_14 
REMARK    2  A    between atoms: O_4  and  C_19 
REMARK    3  A    between atoms: O_5  and  C_22 
REMARK    4  A    between atoms: C_21  and  C_23 
ROOT
HETATM    1  O   UNK N   1     152.432 150.774 148.590  0.00  0.00    -0.312 OA
HETATM    2  O   UNK N   1     150.409 150.204 149.381  0.00  0.00    -0.264 OA
HETATM    3  C   UNK N   1     151.802 152.157 146.863  0.00  0.00     0.049 C 
HETATM    4  C   UNK N   1     150.619 152.062 147.884  0.00  0.00     0.085 C 
HETATM    5  C   UNK N   1     151.712 151.179 145.612  0.00  0.00    -0.040 C 
HETATM    6  C   UNK N   1     152.974 151.781 147.811  0.00  0.00     0.171 C 
HETATM    7  C   UNK N   1     149.246 151.939 147.161  0.00  0.00     0.025 C 
HETATM    8  C   UNK N   1     150.303 151.302 144.984  0.00  0.00     0.009 C 
HETATM    9  C   UNK N   1     150.742 153.253 148.882  0.00  0.00     0.006 A 
HETATM   10  C   UNK N   1     149.211 150.952 145.999  0.00  0.00     0.002 C 
HETATM   11  C   UNK N   1     153.303 152.992 148.712  0.00  0.00     0.181 C 
HETATM   12  C   UNK N   1     151.096 150.868 148.622  0.00  0.00     0.273 C 
HETATM   13  C   UNK N   1     152.054 153.668 149.269  0.00  0.00    -0.016 A 
HETATM   14  C   UNK N   1     152.010 149.677 145.910  0.00  0.00     0.015 C 
HETATM   15  C   UNK N   1     152.748 151.633 144.557  0.00  0.00     0.015 C 
HETATM   16  C   UNK N   1     149.625 153.951 149.421  0.00  0.00     0.107 A 
HETATM   17  C   UNK N   1     152.219 154.746 150.146  0.00  0.00     0.021 A 
HETATM   18  C   UNK N   1     151.122 155.447 150.660  0.00  0.00    -0.018 A 
HETATM   19  C   UNK N   1     149.815 155.056 150.291  0.00  0.00     0.106 A 
ENDROOT
BRANCH  18  20
HETATM   20  C   UNK N   1     151.371 156.615 151.612  0.00  0.00     0.013 C 
HETATM   21  C   UNK N   1     151.594 157.924 150.838  0.00  0.00     0.015 C 
HETATM   22  C   UNK N   1     152.533 156.337 152.579  0.00  0.00     0.015 C 
ENDBRANCH  18  20
BRANCH  19  23
HETATM   23  O   UNK N   1     148.770 155.762 150.774  0.00  0.00    -0.357 OA
HETATM   24  H   UNK N   1     147.859 155.449 150.817  0.00  0.00     0.218 HD
ENDBRANCH  19  23
BRANCH  16  25
HETATM   25  O   UNK N   1     148.370 153.543 149.119  0.00  0.00    -0.357 OA
HETATM   26  H   UNK N   1     147.626 154.119 148.925  0.00  0.00     0.218 HD
ENDBRANCH  16  25
BRANCH  11  27
HETATM   27  O   UNK N   1     154.018 153.944 147.966  0.00  0.00    -0.388 OA
HETATM   28  H   UNK N   1     153.347 154.510 147.499  0.00  0.00     0.210 HD
ENDBRANCH  11  27
TORSDOF 4
ENDMDL
MODEL 4
REMARK VINA RESULT:      -7.1     24.552     27.863
REMARK  4 active torsions:
REMARK  status: ('A' for Active; 'I' for Inactive)
REMARK    1  A    between atoms: O_2  and  C_14 
REMARK    2  A    between atoms: O_4  and  C_19 
REMARK    3  A    between atoms: O_5  and  C_22 
REMARK    4  A    between atoms: C_21  and  C_23 
ROOT
HETATM    1  O   UNK N   1     137.781 149.901 121.464  0.00  0.00    -0.312 OA
HETATM    2  O   UNK N   1     136.532 148.911 123.046  0.00  0.00    -0.264 OA
HETATM    3  C   UNK N   1     139.518 148.398 121.339  0.00  0.00     0.049 C 
HETATM    4  C   UNK N   1     138.278 147.677 121.967  0.00  0.00     0.085 C 
HETATM    5  C   UNK N   1     140.582 148.966 122.376  0.00  0.00    -0.040 C 
HETATM    6  C   UNK N   1     138.782 149.536 120.581  0.00  0.00     0.171 C 
HETATM    7  C   UNK N   1     138.689 146.760 123.155  0.00  0.00     0.025 C 
HETATM    8  C   UNK N   1     140.926 147.854 123.395  0.00  0.00     0.009 C 
HETATM    9  C   UNK N   1     137.496 146.970 120.818  0.00  0.00     0.006 A 
HETATM   10  C   UNK N   1     139.676 147.377 124.139  0.00  0.00     0.002 C 
HETATM   11  C   UNK N   1     138.137 148.957 119.302  0.00  0.00     0.181 C 
HETATM   12  C   UNK N   1     137.495 148.892 122.298  0.00  0.00     0.273 C 
HETATM   13  C   UNK N   1     137.438 147.623 119.548  0.00  0.00    -0.016 A 
HETATM   14  C   UNK N   1     140.149 150.251 123.148  0.00  0.00     0.015 C 
HETATM   15  C   UNK N   1     141.874 149.329 121.607  0.00  0.00     0.015 C 
HETATM   16  C   UNK N   1     136.844 145.713 120.963  0.00  0.00     0.107 A 
HETATM   17  C   UNK N   1     136.766 147.020 118.479  0.00  0.00     0.021 A 
HETATM   18  C   UNK N   1     136.144 145.774 118.614  0.00  0.00    -0.018 A 
HETATM   19  C   UNK N   1     136.187 145.109 119.860  0.00  0.00     0.106 A 
ENDROOT
BRANCH  18  20
HETATM   20  C   UNK N   1     135.428 145.170 117.408  0.00  0.00     0.013 C 
HETATM   21  C   UNK N   1     136.250 145.356 116.123  0.00  0.00     0.015 C 
HETATM   22  C   UNK N   1     134.004 145.726 117.241  0.00  0.00     0.015 C 
ENDBRANCH  18  20
BRANCH  19  23
HETATM   23  O   UNK N   1     135.606 143.894 119.964  0.00  0.00    -0.357 OA
HETATM   24  H   UNK N   1     134.793 143.705 120.448  0.00  0.00     0.218 HD
ENDBRANCH  19  23
BRANCH  16  25
HETATM   25  O   UNK N   1     136.831 145.100 122.170  0.00  0.00    -0.357 OA
HETATM   26  H   UNK N   1     136.896 145.539 123.022  0.00  0.00     0.218 HD
ENDBRANCH  16  25
BRANCH  11  27
HETATM   27  O   UNK N   1     139.133 148.754 118.332  0.00  0.00    -0.388 OA
HETATM   28  H   UNK N   1     138.968 147.861 117.928  0.00  0.00     0.210 HD
ENDBRANCH  11  27
TORSDOF 4
ENDMDL
MODEL 5
REMARK VINA RESULT:      -7.1      1.732      2.652
REMARK  4 active torsions:
REMARK  status: ('A' for Active; 'I' for Inactive)
REMARK    1  A    between atoms: O_2  and  C_14 
REMARK    2  A    between atoms: O_4  and  C_19 
REMARK    3  A    between atoms: O_5  and  C_22 
REMARK    4  A    between atoms: C_21  and  C_23 
ROOT
HETATM    1  O   UNK N   1     149.765 152.487 146.356  0.00  0.00    -0.312 OA
HETATM    2  O   UNK N   1     148.821 150.483 146.727  0.00  0.00    -0.264 OA
HETATM    3  C   UNK N   1     151.982 151.929 146.614  0.00  0.00     0.049 C 
HETATM    4  C   UNK N   1     151.173 150.627 146.296  0.00  0.00     0.085 C 
HETATM    5  C   UNK N   1     152.263 152.206 148.155  0.00  0.00    -0.040 C 
HETATM    6  C   UNK N   1     151.010 152.976 146.003  0.00  0.00     0.171 C 
HETATM    7  C   UNK N   1     151.647 149.430 147.171  0.00  0.00     0.025 C 
HETATM    8  C   UNK N   1     152.830 150.918 148.797  0.00  0.00     0.009 C 
HETATM    9  C   UNK N   1     151.223 150.388 144.756  0.00  0.00     0.006 A 
HETATM   10  C   UNK N   1     151.854 149.748 148.647  0.00  0.00     0.002 C 
HETATM   11  C   UNK N   1     151.142 152.950 144.464  0.00  0.00     0.181 C 
HETATM   12  C   UNK N   1     149.820 151.166 146.576  0.00  0.00     0.273 C 
HETATM   13  C   UNK N   1     151.194 151.533 143.901  0.00  0.00    -0.016 A 
HETATM   14  C   UNK N   1     151.035 152.694 148.985  0.00  0.00     0.015 C 
HETATM   15  C   UNK N   1     153.338 153.313 148.268  0.00  0.00     0.015 C 
HETATM   16  C   UNK N   1     151.300 149.099 144.158  0.00  0.00     0.107 A 
HETATM   17  C   UNK N   1     151.257 151.374 142.512  0.00  0.00     0.021 A 
HETATM   18  C   UNK N   1     151.356 150.108 141.924  0.00  0.00    -0.018 A 
HETATM   19  C   UNK N   1     151.387 148.961 142.748  0.00  0.00     0.106 A 
ENDROOT
BRANCH  18  20
HETATM   20  C   UNK N   1     151.423 150.002 140.402  0.00  0.00     0.013 C 
HETATM   21  C   UNK N   1     151.583 151.387 139.756  0.00  0.00     0.015 C 
HETATM   22  C   UNK N   1     150.213 149.255 139.820  0.00  0.00     0.015 C 
ENDBRANCH  18  20
BRANCH  19  23
HETATM   23  O   UNK N   1     151.511 147.749 142.165  0.00  0.00    -0.357 OA
HETATM   24  H   UNK N   1     151.268 147.540 141.256  0.00  0.00     0.218 HD
ENDBRANCH  19  23
BRANCH  16  25
HETATM   25  O   UNK N   1     151.269 147.994 144.940  0.00  0.00    -0.357 OA
HETATM   26  H   UNK N   1     150.968 147.123 144.668  0.00  0.00     0.218 HD
ENDBRANCH  16  25
BRANCH  11  27
HETATM   27  O   UNK N   1     152.324 153.611 144.089  0.00  0.00    -0.388 OA
HETATM   28  H   UNK N   1     152.617 154.148 144.873  0.00  0.00     0.210 HD
ENDBRANCH  11  27
TORSDOF 4
ENDMDL
MODEL 6
REMARK VINA RESULT:      -7.0     12.847     16.598
REMARK  4 active torsions:
REMARK  status: ('A' for Active; 'I' for Inactive)
REMARK    1  A    between atoms: O_2  and  C_14 
REMARK    2  A    between atoms: O_4  and  C_19 
REMARK    3  A    between atoms: O_5  and  C_22 
REMARK    4  A    between atoms: C_21  and  C_23 
ROOT
HETATM    1  O   UNK N   1     142.156 150.365 156.257  0.00  0.00    -0.312 OA
HETATM    2  O   UNK N   1     140.236 150.172 157.407  0.00  0.00    -0.264 OA
HETATM    3  C   UNK N   1     142.296 152.656 156.110  0.00  0.00     0.049 C 
HETATM    4  C   UNK N   1     141.351 152.290 157.303  0.00  0.00     0.085 C 
HETATM    5  C   UNK N   1     141.570 152.990 154.735  0.00  0.00    -0.040 C 
HETATM    6  C   UNK N   1     143.113 151.338 156.031  0.00  0.00     0.171 C 
HETATM    7  C   UNK N   1     140.103 153.218 157.353  0.00  0.00     0.025 C 
HETATM    8  C   UNK N   1     140.439 154.011 155.004  0.00  0.00     0.009 C 
HETATM    9  C   UNK N   1     142.207 152.255 158.606  0.00  0.00     0.006 A 
HETATM   10  C   UNK N   1     139.423 153.462 156.010  0.00  0.00     0.002 C 
HETATM   11  C   UNK N   1     144.141 151.310 157.184  0.00  0.00     0.181 C 
HETATM   12  C   UNK N   1     141.118 150.872 156.937  0.00  0.00     0.273 C 
HETATM   13  C   UNK N   1     143.547 151.764 158.513  0.00  0.00    -0.016 A 
HETATM   14  C   UNK N   1     140.981 151.763 153.971  0.00  0.00     0.015 C 
HETATM   15  C   UNK N   1     142.595 153.649 153.783  0.00  0.00     0.015 C 
HETATM   16  C   UNK N   1     141.732 152.687 159.876  0.00  0.00     0.107 A 
HETATM   17  C   UNK N   1     144.363 151.731 159.649  0.00  0.00     0.021 A 
HETATM   18  C   UNK N   1     143.904 152.177 160.894  0.00  0.00    -0.018 A 
HETATM   19  C   UNK N   1     142.584 152.667 161.011  0.00  0.00     0.106 A 
ENDROOT
BRANCH  18  20
HETATM   20  C   UNK N   1     144.846 152.117 162.095  0.00  0.00     0.013 C 
HETATM   21  C   UNK N   1     144.513 150.922 163.002  0.00  0.00     0.015 C 
HETATM   22  C   UNK N   1     144.854 153.432 162.891  0.00  0.00     0.015 C 
ENDBRANCH  18  20
BRANCH  19  23
HETATM   23  O   UNK N   1     142.167 153.120 162.213  0.00  0.00    -0.357 OA
HETATM   24  H   UNK N   1     141.830 154.007 162.389  0.00  0.00     0.218 HD
ENDBRANCH  19  23
BRANCH  16  25
HETATM   25  O   UNK N   1     140.450 153.101 160.007  0.00  0.00    -0.357 OA
HETATM   26  H   UNK N   1     140.163 154.013 160.103  0.00  0.00     0.218 HD
ENDBRANCH  16  25
BRANCH  11  27
HETATM   27  O   UNK N   1     145.211 152.165 156.871  0.00  0.00    -0.388 OA
HETATM   28  H   UNK N   1     145.759 152.259 157.695  0.00  0.00     0.210 HD
ENDBRANCH  11  27
TORSDOF 4
ENDMDL
MODEL 7
REMARK VINA RESULT:      -6.9      5.596      8.578
REMARK  4 active torsions:
REMARK  status: ('A' for Active; 'I' for Inactive)
REMARK    1  A    between atoms: O_2  and  C_14 
REMARK    2  A    between atoms: O_4  and  C_19 
REMARK    3  A    between atoms: O_5  and  C_22 
REMARK    4  A    between atoms: C_21  and  C_23 
ROOT
HETATM    1  O   UNK N   1     150.686 155.929 153.340  0.00  0.00    -0.312 OA
HETATM    2  O   UNK N   1     152.657 155.037 152.737  0.00  0.00    -0.264 OA
HETATM    3  C   UNK N   1     150.442 157.500 151.678  0.00  0.00     0.049 C 
HETATM    4  C   UNK N   1     151.448 156.406 151.187  0.00  0.00     0.085 C 
HETATM    5  C   UNK N   1     151.097 158.810 152.299  0.00  0.00    -0.040 C 
HETATM    6  C   UNK N   1     149.679 156.670 152.746  0.00  0.00     0.171 C 
HETATM    7  C   UNK N   1     152.657 157.035 150.434  0.00  0.00     0.025 C 
HETATM    8  C   UNK N   1     152.193 159.323 151.334  0.00  0.00     0.009 C 
HETATM    9  C   UNK N   1     150.648 155.336 150.384  0.00  0.00     0.006 A 
HETATM   10  C   UNK N   1     153.270 158.260 151.103  0.00  0.00     0.002 C 
HETATM   11  C   UNK N   1     148.701 155.709 152.035  0.00  0.00     0.181 C 
HETATM   12  C   UNK N   1     151.727 155.794 152.508  0.00  0.00     0.273 C 
HETATM   13  C   UNK N   1     149.328 155.015 150.830  0.00  0.00    -0.016 A 
HETATM   14  C   UNK N   1     151.707 158.645 153.725  0.00  0.00     0.015 C 
HETATM   15  C   UNK N   1     150.006 159.901 152.410  0.00  0.00     0.015 C 
HETATM   16  C   UNK N   1     151.155 154.667 149.235  0.00  0.00     0.107 A 
HETATM   17  C   UNK N   1     148.561 154.076 150.132  0.00  0.00     0.021 A 
HETATM   18  C   UNK N   1     149.050 153.434 148.989  0.00  0.00    -0.018 A 
HETATM   19  C   UNK N   1     150.351 153.735 148.528  0.00  0.00     0.106 A 
ENDROOT
BRANCH  18  20
HETATM   20  C   UNK N   1     148.160 152.420 148.272  0.00  0.00     0.013 C 
HETATM   21  C   UNK N   1     146.676 152.662 148.586  0.00  0.00     0.015 C 
HETATM   22  C   UNK N   1     148.565 150.971 148.586  0.00  0.00     0.015 C 
ENDBRANCH  18  20
BRANCH  19  23
HETATM   23  O   UNK N   1     150.796 153.128 147.406  0.00  0.00    -0.357 OA
HETATM   24  H   UNK N   1     151.087 152.210 147.347  0.00  0.00     0.218 HD
ENDBRANCH  19  23
BRANCH  16  25
HETATM   25  O   UNK N   1     152.422 154.907 148.824  0.00  0.00    -0.357 OA
HETATM   26  H   UNK N   1     152.993 155.608 149.150  0.00  0.00     0.218 HD
ENDBRANCH  16  25
BRANCH  11  27
HETATM   27  O   UNK N   1     147.583 156.433 151.587  0.00  0.00    -0.388 OA
HETATM   28  H   UNK N   1     146.984 156.557 152.371  0.00  0.00     0.210 HD
ENDBRANCH  11  27
TORSDOF 4
ENDMDL
MODEL 8
REMARK VINA RESULT:      -6.9     11.039     14.840
REMARK  4 active torsions:
REMARK  status: ('A' for Active; 'I' for Inactive)
REMARK    1  A    between atoms: O_2  and  C_14 
REMARK    2  A    between atoms: O_4  and  C_19 
REMARK    3  A    between atoms: O_5  and  C_22 
REMARK    4  A    between atoms: C_21  and  C_23 
ROOT
HETATM    1  O   UNK N   1     150.802 157.208 154.287  0.00  0.00    -0.312 OA
HETATM    2  O   UNK N   1     149.727 158.545 152.837  0.00  0.00    -0.264 OA
HETATM    3  C   UNK N   1     152.523 158.604 154.905  0.00  0.00     0.049 C 
HETATM    4  C   UNK N   1     151.358 159.474 154.325  0.00  0.00     0.085 C 
HETATM    5  C   UNK N   1     153.686 158.242 153.883  0.00  0.00    -0.040 C 
HETATM    6  C   UNK N   1     151.707 157.351 155.324  0.00  0.00     0.171 C 
HETATM    7  C   UNK N   1     151.893 160.612 153.409  0.00  0.00     0.025 C 
HETATM    8  C   UNK N   1     154.139 159.536 153.165  0.00  0.00     0.009 C 
HETATM    9  C   UNK N   1     150.463 159.942 155.514  0.00  0.00     0.006 A 
HETATM   10  C   UNK N   1     152.974 160.193 152.419  0.00  0.00     0.002 C 
HETATM   11  C   UNK N   1     150.935 157.662 156.626  0.00  0.00     0.181 C 
HETATM   12  C   UNK N   1     150.608 158.379 153.664  0.00  0.00     0.273 C 
HETATM   13  C   UNK N   1     150.271 159.035 156.603  0.00  0.00    -0.016 A 
HETATM   14  C   UNK N   1     153.330 157.162 152.815  0.00  0.00     0.015 C 
HETATM   15  C   UNK N   1     154.890 157.691 154.682  0.00  0.00     0.015 C 
HETATM   16  C   UNK N   1     149.834 161.217 155.577  0.00  0.00     0.107 A 
HETATM   17  C   UNK N   1     149.494 159.415 157.703  0.00  0.00     0.021 A 
HETATM   18  C   UNK N   1     148.894 160.676 157.776  0.00  0.00    -0.018 A 
HETATM   19  C   UNK N   1     149.069 161.590 156.712  0.00  0.00     0.106 A 
ENDROOT
BRANCH  18  20
HETATM   20  C   UNK N   1     148.059 161.029 159.005  0.00  0.00     0.013 C 
HETATM   21  C   UNK N   1     148.915 161.721 160.077  0.00  0.00     0.015 C 
HETATM   22  C   UNK N   1     147.332 159.804 159.582  0.00  0.00     0.015 C 
ENDBRANCH  18  20
BRANCH  19  23
HETATM   23  O   UNK N   1     148.507 162.814 156.812  0.00  0.00    -0.357 OA
HETATM   24  H   UNK N   1     147.873 163.083 157.487  0.00  0.00     0.218 HD
ENDBRANCH  19  23
BRANCH  16  25
HETATM   25  O   UNK N   1     149.950 162.073 154.534  0.00  0.00    -0.357 OA
HETATM   26  H   UNK N   1     149.821 161.849 153.609  0.00  0.00     0.218 HD
ENDBRANCH  16  25
BRANCH  11  27
HETATM   27  O   UNK N   1     151.826 157.627 157.712  0.00  0.00    -0.388 OA
HETATM   28  H   UNK N   1     151.530 156.887 158.307  0.00  0.00     0.210 HD
ENDBRANCH  11  27
TORSDOF 4
ENDMDL
MODEL 9
REMARK VINA RESULT:      -6.8      3.333      6.576
REMARK  4 active torsions:
REMARK  status: ('A' for Active; 'I' for Inactive)
REMARK    1  A    between atoms: O_2  and  C_14 
REMARK    2  A    between atoms: O_4  and  C_19 
REMARK    3  A    between atoms: O_5  and  C_22 
REMARK    4  A    between atoms: C_21  and  C_23 
ROOT
HETATM    1  O   UNK N   1     149.846 152.207 145.998  0.00  0.00    -0.312 OA
HETATM    2  O   UNK N   1     150.458 154.336 146.375  0.00  0.00    -0.264 OA
HETATM    3  C   UNK N   1     150.569 151.240 147.956  0.00  0.00     0.049 C 
HETATM    4  C   UNK N   1     150.396 152.777 148.194  0.00  0.00     0.085 C 
HETATM    5  C   UNK N   1     152.045 150.758 147.615  0.00  0.00    -0.040 C 
HETATM    6  C   UNK N   1     149.608 151.069 146.748  0.00  0.00     0.171 C 
HETATM    7  C   UNK N   1     151.561 153.361 149.045  0.00  0.00     0.025 C 
HETATM    8  C   UNK N   1     153.020 151.367 148.650  0.00  0.00     0.009 C 
HETATM    9  C   UNK N   1     148.966 153.023 148.765  0.00  0.00     0.006 A 
HETATM   10  C   UNK N   1     152.955 152.897 148.639  0.00  0.00     0.002 C 
HETATM   11  C   UNK N   1     148.148 151.097 147.255  0.00  0.00     0.181 C 
HETATM   12  C   UNK N   1     150.336 153.188 146.770  0.00  0.00     0.273 C 
HETATM   13  C   UNK N   1     147.902 152.200 148.279  0.00  0.00    -0.016 A 
HETATM   14  C   UNK N   1     152.548 151.097 146.177  0.00  0.00     0.015 C 
HETATM   15  C   UNK N   1     152.104 149.218 147.749  0.00  0.00     0.015 C 
HETATM   16  C   UNK N   1     148.664 154.012 149.742  0.00  0.00     0.107 A 
HETATM   17  C   UNK N   1     146.604 152.366 148.775  0.00  0.00     0.021 A 
HETATM   18  C   UNK N   1     146.311 153.324 149.752  0.00  0.00    -0.018 A 
HETATM   19  C   UNK N   1     147.345 154.149 150.248  0.00  0.00     0.106 A 
ENDROOT
BRANCH  18  20
HETATM   20  C   UNK N   1     144.873 153.453 150.253  0.00  0.00     0.013 C 
HETATM   21  C   UNK N   1     144.618 152.531 151.455  0.00  0.00     0.015 C 
HETATM   22  C   UNK N   1     143.847 153.205 149.136  0.00  0.00     0.015 C 
ENDBRANCH  18  20
BRANCH  19  23
HETATM   23  O   UNK N   1     147.049 155.048 151.212  0.00  0.00    -0.357 OA
HETATM   24  H   UNK N   1     146.445 154.897 151.948  0.00  0.00     0.218 HD
ENDBRANCH  19  23
BRANCH  16  25
HETATM   25  O   UNK N   1     149.639 154.845 150.176  0.00  0.00    -0.357 OA
HETATM   26  H   UNK N   1     150.247 154.667 150.899  0.00  0.00     0.218 HD
ENDBRANCH  16  25
BRANCH  11  27
HETATM   27  O   UNK N   1     147.844 149.866 147.859  0.00  0.00    -0.388 OA
HETATM   28  H   UNK N   1     148.705 149.387 147.991  0.00  0.00     0.210 HD
ENDBRANCH  11  27
TORSDOF 4
ENDMDL
