MODEL 1
REMARK VINA RESULT:      -7.0      0.000      0.000
REMARK  4 active torsions:
REMARK  status: ('A' for Active; 'I' for Inactive)
REMARK    1  A    between atoms: O_2  and  C_14 
REMARK    2  A    between atoms: O_4  and  C_19 
REMARK    3  A    between atoms: O_5  and  C_22 
REMARK    4  A    between atoms: C_21  and  C_23 
ROOT
HETATM    1  O   UNK N   1     137.813 149.931 121.620  0.00  0.00    -0.312 OA
HETATM    2  O   UNK N   1     136.585 148.880 123.176  0.00  0.00    -0.264 OA
HETATM    3  C   UNK N   1     139.560 148.444 121.424  0.00  0.00     0.049 C 
HETATM    4  C   UNK N   1     138.332 147.698 122.043  0.00  0.00     0.085 C 
HETATM    5  C   UNK N   1     140.637 148.985 122.460  0.00  0.00    -0.040 C 
HETATM    6  C   UNK N   1     138.808 149.604 120.716  0.00  0.00     0.171 C 
HETATM    7  C   UNK N   1     138.760 146.750 123.201  0.00  0.00     0.025 C 
HETATM    8  C   UNK N   1     140.997 147.846 123.446  0.00  0.00     0.009 C 
HETATM    9  C   UNK N   1     137.539 147.029 120.877  0.00  0.00     0.006 A 
HETATM   10  C   UNK N   1     139.755 147.347 124.191  0.00  0.00     0.002 C 
HETATM   11  C   UNK N   1     138.155 149.074 119.417  0.00  0.00     0.184 C 
HETATM   12  C   UNK N   1     137.546 148.895 122.424  0.00  0.00     0.273 C 
HETATM   13  C   UNK N   1     137.464 147.724 119.629  0.00  0.00    -0.016 A 
HETATM   14  C   UNK N   1     140.215 150.248 123.273  0.00  0.00     0.015 C 
HETATM   15  C   UNK N   1     141.918 149.370 121.682  0.00  0.00     0.015 C 
HETATM   16  C   UNK N   1     136.890 145.763 120.990  0.00  0.00     0.107 A 
HETATM   17  C   UNK N   1     136.782 147.153 118.547  0.00  0.00     0.021 A 
HETATM   18  C   UNK N   1     136.159 145.901 118.653  0.00  0.00    -0.018 A 
HETATM   19  C   UNK N   1     136.213 145.201 119.874  0.00  0.00     0.106 A 
ENDROOT
BRANCH  18  20
HETATM   20  C   UNK N   1     135.424 145.300 117.455  0.00  0.00     0.013 C 
HETATM   21  C   UNK N   1     136.253 145.424 116.171  0.00  0.00     0.015 C 
HETATM   22  C   UNK N   1     134.041 145.939 117.284  0.00  0.00     0.015 C 
ENDBRANCH  18  20
BRANCH  19  23
HETATM   23  O   UNK N   1     135.616 143.988 119.946  0.00  0.00    -0.357 OA
HETATM   24  H   UNK N   1     135.573 143.340 119.233  0.00  0.00     0.218 HD
ENDBRANCH  19  23
BRANCH  16  25
HETATM   25  O   UNK N   1     136.906 145.108 122.172  0.00  0.00    -0.357 OA
HETATM   26  H   UNK N   1     136.690 145.486 123.030  0.00  0.00     0.218 HD
ENDBRANCH  16  25
BRANCH  11  27
HETATM   27  O   UNK N   1     139.145 148.898 118.413  0.00  0.00    -0.383 OA
HETATM   28  C   UNK N   1     139.770 150.126 118.083  0.00  0.00     0.202 C 
ENDBRANCH  11  27
TORSDOF 4
ENDMDL
MODEL 2
REMARK VINA RESULT:      -6.9     32.030     35.364
REMARK  4 active torsions:
REMARK  status: ('A' for Active; 'I' for Inactive)
REMARK    1  A    between atoms: O_2  and  C_14 
REMARK    2  A    between atoms: O_4  and  C_19 
REMARK    3  A    between atoms: O_5  and  C_22 
REMARK    4  A    between atoms: C_21  and  C_23 
ROOT
HETATM    1  O   UNK N   1     152.136 158.823 151.052  0.00  0.00    -0.312 OA
HETATM    2  O   UNK N   1     150.564 160.191 151.881  0.00  0.00    -0.264 OA
HETATM    3  C   UNK N   1     152.495 157.476 152.884  0.00  0.00     0.049 C 
HETATM    4  C   UNK N   1     151.095 158.157 153.028  0.00  0.00     0.085 C 
HETATM    5  C   UNK N   1     153.695 158.186 153.648  0.00  0.00    -0.040 C 
HETATM    6  C   UNK N   1     152.656 157.574 151.342  0.00  0.00     0.171 C 
HETATM    7  C   UNK N   1     150.837 158.639 154.486  0.00  0.00     0.025 C 
HETATM    8  C   UNK N   1     153.257 158.472 155.105  0.00  0.00     0.009 C 
HETATM    9  C   UNK N   1     150.025 157.188 152.436  0.00  0.00     0.006 A 
HETATM   10  C   UNK N   1     152.010 159.360 155.144  0.00  0.00     0.002 C 
HETATM   11  C   UNK N   1     151.779 156.493 150.666  0.00  0.00     0.184 C 
HETATM   12  C   UNK N   1     151.284 159.214 152.006  0.00  0.00     0.273 C 
HETATM   13  C   UNK N   1     150.384 156.408 151.292  0.00  0.00    -0.016 A 
HETATM   14  C   UNK N   1     154.216 159.508 153.003  0.00  0.00     0.015 C 
HETATM   15  C   UNK N   1     154.896 157.212 153.689  0.00  0.00     0.015 C 
HETATM   16  C   UNK N   1     148.713 157.035 152.978  0.00  0.00     0.107 A 
HETATM   17  C   UNK N   1     149.464 155.508 150.739  0.00  0.00     0.021 A 
HETATM   18  C   UNK N   1     148.181 155.347 151.282  0.00  0.00    -0.018 A 
HETATM   19  C   UNK N   1     147.803 156.107 152.405  0.00  0.00     0.106 A 
ENDROOT
BRANCH  18  20
HETATM   20  C   UNK N   1     147.200 154.353 150.660  0.00  0.00     0.013 C 
HETATM   21  C   UNK N   1     147.915 153.363 149.734  0.00  0.00     0.015 C 
HETATM   22  C   UNK N   1     146.073 155.087 149.921  0.00  0.00     0.015 C 
ENDBRANCH  18  20
BRANCH  19  23
HETATM   23  O   UNK N   1     146.564 155.922 152.918  0.00  0.00    -0.357 OA
HETATM   24  H   UNK N   1     145.753 155.826 152.406  0.00  0.00     0.218 HD
ENDBRANCH  19  23
BRANCH  16  25
HETATM   25  O   UNK N   1     148.333 157.794 154.030  0.00  0.00    -0.357 OA
HETATM   26  H   UNK N   1     148.368 157.533 154.956  0.00  0.00     0.218 HD
ENDBRANCH  16  25
BRANCH  11  27
HETATM   27  O   UNK N   1     152.390 155.217 150.803  0.00  0.00    -0.383 OA
HETATM   28  C   UNK N   1     153.233 154.928 149.702  0.00  0.00     0.202 C 
ENDBRANCH  11  27
TORSDOF 4
ENDMDL
MODEL 3
REMARK VINA RESULT:      -6.8     30.304     33.744
REMARK  4 active torsions:
REMARK  status: ('A' for Active; 'I' for Inactive)
REMARK    1  A    between atoms: O_2  and  C_14 
REMARK    2  A    between atoms: O_4  and  C_19 
REMARK    3  A    between atoms: O_5  and  C_22 
REMARK    4  A    between atoms: C_21  and  C_23 
ROOT
HETATM    1  O   UNK N   1     150.697 155.913 153.334  0.00  0.00    -0.312 OA
HETATM    2  O   UNK N   1     152.657 155.016 152.712  0.00  0.00    -0.264 OA
HETATM    3  C   UNK N   1     150.442 157.494 151.681  0.00  0.00     0.049 C 
HETATM    4  C   UNK N   1     151.444 156.402 151.181  0.00  0.00     0.085 C 
HETATM    5  C   UNK N   1     151.096 158.803 152.303  0.00  0.00    -0.040 C 
HETATM    6  C   UNK N   1     149.688 156.661 152.753  0.00  0.00     0.171 C 
HETATM    7  C   UNK N   1     152.653 157.032 150.430  0.00  0.00     0.025 C 
HETATM    8  C   UNK N   1     152.193 159.318 151.340  0.00  0.00     0.009 C 
HETATM    9  C   UNK N   1     150.633 155.334 150.383  0.00  0.00     0.006 A 
HETATM   10  C   UNK N   1     153.269 158.254 151.107  0.00  0.00     0.002 C 
HETATM   11  C   UNK N   1     148.692 155.707 152.053  0.00  0.00     0.184 C 
HETATM   12  C   UNK N   1     151.732 155.783 152.496  0.00  0.00     0.273 C 
HETATM   13  C   UNK N   1     149.314 155.015 150.837  0.00  0.00    -0.016 A 
HETATM   14  C   UNK N   1     151.705 158.638 153.730  0.00  0.00     0.015 C 
HETATM   15  C   UNK N   1     150.003 159.893 152.415  0.00  0.00     0.015 C 
HETATM   16  C   UNK N   1     151.135 154.666 149.226  0.00  0.00     0.107 A 
HETATM   17  C   UNK N   1     148.540 154.079 150.139  0.00  0.00     0.021 A 
HETATM   18  C   UNK N   1     149.027 153.434 148.993  0.00  0.00    -0.018 A 
HETATM   19  C   UNK N   1     150.324 153.728 148.531  0.00  0.00     0.106 A 
ENDROOT
BRANCH  18  20
HETATM   20  C   UNK N   1     148.157 152.420 148.250  0.00  0.00     0.013 C 
HETATM   21  C   UNK N   1     146.668 152.639 148.540  0.00  0.00     0.015 C 
HETATM   22  C   UNK N   1     148.581 150.985 148.587  0.00  0.00     0.015 C 
ENDBRANCH  18  20
BRANCH  19  23
HETATM   23  O   UNK N   1     150.765 153.102 147.414  0.00  0.00    -0.357 OA
HETATM   24  H   UNK N   1     151.101 152.200 147.372  0.00  0.00     0.218 HD
ENDBRANCH  19  23
BRANCH  16  25
HETATM   25  O   UNK N   1     152.394 154.915 148.805  0.00  0.00    -0.357 OA
HETATM   26  H   UNK N   1     152.649 155.562 148.140  0.00  0.00     0.218 HD
ENDBRANCH  16  25
BRANCH  11  27
HETATM   27  O   UNK N   1     147.558 156.434 151.601  0.00  0.00    -0.383 OA
HETATM   28  C   UNK N   1     146.871 157.043 152.680  0.00  0.00     0.202 C 
ENDBRANCH  11  27
TORSDOF 4
ENDMDL
MODEL 4
REMARK VINA RESULT:      -6.7     66.987     69.253
REMARK  4 active torsions:
REMARK  status: ('A' for Active; 'I' for Inactive)
REMARK    1  A    between atoms: O_2  and  C_14 
REMARK    2  A    between atoms: O_4  and  C_19 
REMARK    3  A    between atoms: O_5  and  C_22 
REMARK    4  A    between atoms: C_21  and  C_23 
ROOT
HETATM    1  O   UNK N   1     140.877 160.388 189.009  0.00  0.00    -0.312 OA
HETATM    2  O   UNK N   1     140.582 159.403 187.015  0.00  0.00    -0.264 OA
HETATM    3  C   UNK N   1     142.624 159.127 189.819  0.00  0.00     0.049 C 
HETATM    4  C   UNK N   1     142.584 158.987 188.262  0.00  0.00     0.085 C 
HETATM    5  C   UNK N   1     141.908 157.967 190.638  0.00  0.00    -0.040 C 
HETATM    6  C   UNK N   1     141.875 160.480 189.962  0.00  0.00     0.171 C 
HETATM    7  C   UNK N   1     142.838 157.520 187.809  0.00  0.00     0.025 C 
HETATM    8  C   UNK N   1     142.391 156.601 190.094  0.00  0.00     0.009 C 
HETATM    9  C   UNK N   1     143.544 160.059 187.659  0.00  0.00     0.006 A 
HETATM   10  C   UNK N   1     142.080 156.459 188.601  0.00  0.00     0.002 C 
HETATM   11  C   UNK N   1     142.831 161.636 189.582  0.00  0.00     0.184 C 
HETATM   12  C   UNK N   1     141.215 159.516 188.052  0.00  0.00     0.273 C 
HETATM   13  C   UNK N   1     143.631 161.328 188.314  0.00  0.00    -0.016 A 
HETATM   14  C   UNK N   1     140.347 157.998 190.625  0.00  0.00     0.015 C 
HETATM   15  C   UNK N   1     142.338 158.074 192.120  0.00  0.00     0.015 C 
HETATM   16  C   UNK N   1     144.341 159.838 186.495  0.00  0.00     0.107 A 
HETATM   17  C   UNK N   1     144.497 162.314 187.821  0.00  0.00     0.021 A 
HETATM   18  C   UNK N   1     145.291 162.090 186.688  0.00  0.00    -0.018 A 
HETATM   19  C   UNK N   1     145.218 160.851 186.023  0.00  0.00     0.106 A 
ENDROOT
BRANCH  18  20
HETATM   20  C   UNK N   1     146.230 163.183 186.175  0.00  0.00     0.013 C 
HETATM   21  C   UNK N   1     147.305 163.529 187.212  0.00  0.00     0.015 C 
HETATM   22  C   UNK N   1     145.441 164.431 185.758  0.00  0.00     0.015 C 
ENDBRANCH  18  20
BRANCH  19  23
HETATM   23  O   UNK N   1     146.007 160.656 184.939  0.00  0.00    -0.357 OA
HETATM   24  H   UNK N   1     146.506 159.854 184.746  0.00  0.00     0.218 HD
ENDBRANCH  19  23
BRANCH  16  25
HETATM   25  O   UNK N   1     144.242 158.665 185.831  0.00  0.00    -0.357 OA
HETATM   26  H   UNK N   1     143.732 157.899 186.112  0.00  0.00     0.218 HD
ENDBRANCH  16  25
BRANCH  11  27
HETATM   27  O   UNK N   1     143.760 161.864 190.632  0.00  0.00    -0.383 OA
HETATM   28  C   UNK N   1     143.246 162.774 191.588  0.00  0.00     0.202 C 
ENDBRANCH  11  27
TORSDOF 4
ENDMDL
MODEL 5
REMARK VINA RESULT:      -6.7     35.181     38.561
REMARK  4 active torsions:
REMARK  status: ('A' for Active; 'I' for Inactive)
REMARK    1  A    between atoms: O_2  and  C_14 
REMARK    2  A    between atoms: O_4  and  C_19 
REMARK    3  A    between atoms: O_5  and  C_22 
REMARK    4  A    between atoms: C_21  and  C_23 
ROOT
HETATM    1  O   UNK N   1     149.498 158.109 152.641  0.00  0.00    -0.312 OA
HETATM    2  O   UNK N   1     149.500 160.352 152.574  0.00  0.00    -0.264 OA
HETATM    3  C   UNK N   1     151.540 157.741 153.639  0.00  0.00     0.049 C 
HETATM    4  C   UNK N   1     151.081 159.202 153.958  0.00  0.00     0.085 C 
HETATM    5  C   UNK N   1     152.539 157.580 152.413  0.00  0.00    -0.040 C 
HETATM    6  C   UNK N   1     150.153 157.110 153.339  0.00  0.00     0.171 C 
HETATM    7  C   UNK N   1     152.261 160.212 153.850  0.00  0.00     0.025 C 
HETATM    8  C   UNK N   1     153.689 158.604 152.569  0.00  0.00     0.009 C 
HETATM    9  C   UNK N   1     150.329 159.183 155.325  0.00  0.00     0.006 A 
HETATM   10  C   UNK N   1     153.150 160.037 152.623  0.00  0.00     0.002 C 
HETATM   11  C   UNK N   1     149.408 156.855 154.671  0.00  0.00     0.184 C 
HETATM   12  C   UNK N   1     150.024 159.306 152.923  0.00  0.00     0.273 C 
HETATM   13  C   UNK N   1     149.523 158.041 155.632  0.00  0.00    -0.016 A 
HETATM   14  C   UNK N   1     151.900 157.741 150.998  0.00  0.00     0.015 C 
HETATM   15  C   UNK N   1     153.150 156.159 152.461  0.00  0.00     0.015 C 
HETATM   16  C   UNK N   1     150.407 160.238 156.283  0.00  0.00     0.107 A 
HETATM   17  C   UNK N   1     148.847 157.969 156.857  0.00  0.00     0.021 A 
HETATM   18  C   UNK N   1     148.937 158.998 157.805  0.00  0.00    -0.018 A 
HETATM   19  C   UNK N   1     149.719 160.134 157.522  0.00  0.00     0.106 A 
ENDROOT
BRANCH  18  20
HETATM   20  C   UNK N   1     148.191 158.890 159.135  0.00  0.00     0.013 C 
HETATM   21  C   UNK N   1     149.090 158.314 160.236  0.00  0.00     0.015 C 
HETATM   22  C   UNK N   1     146.909 158.064 158.979  0.00  0.00     0.015 C 
ENDBRANCH  18  20
BRANCH  19  23
HETATM   23  O   UNK N   1     149.801 161.108 158.460  0.00  0.00    -0.357 OA
HETATM   24  H   UNK N   1     149.078 161.405 159.025  0.00  0.00     0.218 HD
ENDBRANCH  19  23
BRANCH  16  25
HETATM   25  O   UNK N   1     151.123 161.347 155.997  0.00  0.00    -0.357 OA
HETATM   26  H   UNK N   1     152.081 161.426 156.035  0.00  0.00     0.218 HD
ENDBRANCH  16  25
BRANCH  11  27
HETATM   27  O   UNK N   1     149.955 155.717 155.324  0.00  0.00    -0.383 OA
HETATM   28  C   UNK N   1     149.141 154.574 155.138  0.00  0.00     0.202 C 
ENDBRANCH  11  27
TORSDOF 4
ENDMDL
MODEL 6
REMARK VINA RESULT:      -6.7     43.753     46.484
REMARK  4 active torsions:
REMARK  status: ('A' for Active; 'I' for Inactive)
REMARK    1  A    between atoms: O_2  and  C_14 
REMARK    2  A    between atoms: O_4  and  C_19 
REMARK    3  A    between atoms: O_5  and  C_22 
REMARK    4  A    between atoms: C_21  and  C_23 
ROOT
HETATM    1  O   UNK N   1     159.505 121.133 155.260  0.00  0.00    -0.312 OA
HETATM    2  O   UNK N   1     157.683 122.262 155.924  0.00  0.00    -0.264 OA
HETATM    3  C   UNK N   1     158.884 120.612 153.105  0.00  0.00     0.049 C 
HETATM    4  C   UNK N   1     158.029 121.827 153.595  0.00  0.00     0.085 C 
HETATM    5  C   UNK N   1     158.200 119.183 153.242  0.00  0.00    -0.040 C 
HETATM    6  C   UNK N   1     160.095 120.765 154.065  0.00  0.00     0.171 C 
HETATM    7  C   UNK N   1     156.539 121.694 153.161  0.00  0.00     0.025 C 
HETATM    8  C   UNK N   1     156.772 119.254 152.649  0.00  0.00     0.009 C 
HETATM    9  C   UNK N   1     158.751 123.135 153.146  0.00  0.00     0.006 A 
HETATM   10  C   UNK N   1     155.928 120.311 153.367  0.00  0.00     0.002 C 
HETATM   11  C   UNK N   1     160.996 121.922 153.570  0.00  0.00     0.184 C 
HETATM   12  C   UNK N   1     158.309 121.694 155.044  0.00  0.00     0.273 C 
HETATM   13  C   UNK N   1     160.182 123.150 153.156  0.00  0.00    -0.016 A 
HETATM   14  C   UNK N   1     158.123 118.609 154.691  0.00  0.00     0.015 C 
HETATM   15  C   UNK N   1     159.017 118.166 152.409  0.00  0.00     0.015 C 
HETATM   16  C   UNK N   1     158.061 124.311 152.723  0.00  0.00     0.107 A 
HETATM   17  C   UNK N   1     160.874 124.295 152.740  0.00  0.00     0.021 A 
HETATM   18  C   UNK N   1     160.196 125.444 152.309  0.00  0.00    -0.018 A 
HETATM   19  C   UNK N   1     158.788 125.455 152.296  0.00  0.00     0.106 A 
ENDROOT
BRANCH  18  20
HETATM   20  C   UNK N   1     160.978 126.677 151.857  0.00  0.00     0.013 C 
HETATM   21  C   UNK N   1     162.261 126.286 151.114  0.00  0.00     0.015 C 
HETATM   22  C   UNK N   1     161.286 127.597 153.045  0.00  0.00     0.015 C 
ENDBRANCH  18  20
BRANCH  19  23
HETATM   23  O   UNK N   1     158.158 126.572 151.861  0.00  0.00    -0.357 OA
HETATM   24  H   UNK N   1     157.666 127.189 152.414  0.00  0.00     0.218 HD
ENDBRANCH  19  23
BRANCH  16  25
HETATM   25  O   UNK N   1     156.710 124.338 152.748  0.00  0.00    -0.357 OA
HETATM   26  H   UNK N   1     156.167 124.778 153.409  0.00  0.00     0.218 HD
ENDBRANCH  16  25
BRANCH  11  27
HETATM   27  O   UNK N   1     161.748 121.503 152.440  0.00  0.00    -0.383 OA
HETATM   28  C   UNK N   1     162.697 120.511 152.789  0.00  0.00     0.202 C 
ENDBRANCH  11  27
TORSDOF 4
ENDMDL
MODEL 7
REMARK VINA RESULT:      -6.6     60.248     62.200
REMARK  4 active torsions:
REMARK  status: ('A' for Active; 'I' for Inactive)
REMARK    1  A    between atoms: O_2  and  C_14 
REMARK    2  A    between atoms: O_4  and  C_19 
REMARK    3  A    between atoms: O_5  and  C_22 
REMARK    4  A    between atoms: C_21  and  C_23 
ROOT
HETATM    1  O   UNK N   1     135.825 166.700 180.223  0.00  0.00    -0.312 OA
HETATM    2  O   UNK N   1     136.146 166.017 178.110  0.00  0.00    -0.264 OA
HETATM    3  C   UNK N   1     135.606 168.966 179.877  0.00  0.00     0.049 C 
HETATM    4  C   UNK N   1     135.313 168.222 178.533  0.00  0.00     0.085 C 
HETATM    5  C   UNK N   1     137.085 169.522 180.055  0.00  0.00    -0.040 C 
HETATM    6  C   UNK N   1     135.303 167.808 180.867  0.00  0.00     0.171 C 
HETATM    7  C   UNK N   1     135.961 168.952 177.320  0.00  0.00     0.025 C 
HETATM    8  C   UNK N   1     137.480 170.304 178.779  0.00  0.00     0.009 C 
HETATM    9  C   UNK N   1     133.773 167.988 178.438  0.00  0.00     0.006 A 
HETATM   10  C   UNK N   1     137.399 169.413 177.536  0.00  0.00     0.002 C 
HETATM   11  C   UNK N   1     133.771 167.637 181.002  0.00  0.00     0.184 C 
HETATM   12  C   UNK N   1     135.895 166.910 178.903  0.00  0.00     0.273 C 
HETATM   13  C   UNK N   1     133.063 167.698 179.646  0.00  0.00    -0.016 A 
HETATM   14  C   UNK N   1     138.177 168.447 180.353  0.00  0.00     0.015 C 
HETATM   15  C   UNK N   1     137.100 170.507 181.248  0.00  0.00     0.015 C 
HETATM   16  C   UNK N   1     133.040 168.052 177.216  0.00  0.00     0.107 A 
HETATM   17  C   UNK N   1     131.676 167.501 179.614  0.00  0.00     0.021 A 
HETATM   18  C   UNK N   1     130.953 167.580 178.415  0.00  0.00    -0.018 A 
HETATM   19  C   UNK N   1     131.632 167.859 177.213  0.00  0.00     0.106 A 
ENDROOT
BRANCH  18  20
HETATM   20  C   UNK N   1     129.439 167.366 178.411  0.00  0.00     0.013 C 
HETATM   21  C   UNK N   1     128.794 167.905 179.693  0.00  0.00     0.015 C 
HETATM   22  C   UNK N   1     129.097 165.886 178.199  0.00  0.00     0.015 C 
ENDBRANCH  18  20
BRANCH  19  23
HETATM   23  O   UNK N   1     130.908 167.944 176.072  0.00  0.00    -0.357 OA
HETATM   24  H   UNK N   1     130.009 168.285 176.002  0.00  0.00     0.218 HD
ENDBRANCH  19  23
BRANCH  16  25
HETATM   25  O   UNK N   1     133.694 168.278 176.056  0.00  0.00    -0.357 OA
HETATM   26  H   UNK N   1     134.586 168.629 175.970  0.00  0.00     0.218 HD
ENDBRANCH  16  25
BRANCH  11  27
HETATM   27  O   UNK N   1     133.237 168.675 181.813  0.00  0.00    -0.383 OA
HETATM   28  C   UNK N   1     133.759 168.623 183.129  0.00  0.00     0.202 C 
ENDBRANCH  11  27
TORSDOF 4
ENDMDL
MODEL 8
REMARK VINA RESULT:      -6.5     44.142     46.147
REMARK  4 active torsions:
REMARK  status: ('A' for Active; 'I' for Inactive)
REMARK    1  A    between atoms: O_2  and  C_14 
REMARK    2  A    between atoms: O_4  and  C_19 
REMARK    3  A    between atoms: O_5  and  C_22 
REMARK    4  A    between atoms: C_21  and  C_23 
ROOT
HETATM    1  O   UNK N   1     162.983 123.526 151.198  0.00  0.00    -0.312 OA
HETATM    2  O   UNK N   1     162.237 125.258 149.983  0.00  0.00    -0.264 OA
HETATM    3  C   UNK N   1     163.063 124.508 153.279  0.00  0.00     0.049 C 
HETATM    4  C   UNK N   1     162.091 125.332 152.372  0.00  0.00     0.085 C 
HETATM    5  C   UNK N   1     164.551 125.060 153.381  0.00  0.00    -0.040 C 
HETATM    6  C   UNK N   1     163.003 123.149 152.529  0.00  0.00     0.171 C 
HETATM    7  C   UNK N   1     162.281 126.864 152.569  0.00  0.00     0.025 C 
HETATM    8  C   UNK N   1     164.500 126.576 153.690  0.00  0.00     0.009 C 
HETATM    9  C   UNK N   1     160.645 124.793 152.604  0.00  0.00     0.006 A 
HETATM   10  C   UNK N   1     163.731 127.336 152.605  0.00  0.00     0.002 C 
HETATM   11  C   UNK N   1     161.674 122.434 152.872  0.00  0.00     0.184 C 
HETATM   12  C   UNK N   1     162.519 124.774 151.067  0.00  0.00     0.273 C 
HETATM   13  C   UNK N   1     160.479 123.390 152.832  0.00  0.00    -0.016 A 
HETATM   14  C   UNK N   1     165.444 124.825 152.124  0.00  0.00     0.015 C 
HETATM   15  C   UNK N   1     165.258 124.352 154.562  0.00  0.00     0.015 C 
HETATM   16  C   UNK N   1     159.485 125.624 152.606  0.00  0.00     0.107 A 
HETATM   17  C   UNK N   1     159.202 122.864 153.066  0.00  0.00     0.021 A 
HETATM   18  C   UNK N   1     158.065 123.683 153.085  0.00  0.00    -0.018 A 
HETATM   19  C   UNK N   1     158.202 125.066 152.858  0.00  0.00     0.106 A 
ENDROOT
BRANCH  18  20
HETATM   20  C   UNK N   1     156.684 123.082 153.348  0.00  0.00     0.013 C 
HETATM   21  C   UNK N   1     156.427 122.905 154.849  0.00  0.00     0.015 C 
HETATM   22  C   UNK N   1     156.512 121.755 152.598  0.00  0.00     0.015 C 
ENDBRANCH  18  20
BRANCH  19  23
HETATM   23  O   UNK N   1     157.090 125.837 152.895  0.00  0.00    -0.357 OA
HETATM   24  H   UNK N   1     157.050 126.750 153.204  0.00  0.00     0.218 HD
ENDBRANCH  19  23
BRANCH  16  25
HETATM   25  O   UNK N   1     159.609 126.945 152.348  0.00  0.00    -0.357 OA
HETATM   26  H   UNK N   1     159.099 127.444 151.703  0.00  0.00     0.218 HD
ENDBRANCH  16  25
BRANCH  11  27
HETATM   27  O   UNK N   1     161.741 121.884 154.180  0.00  0.00    -0.383 OA
HETATM   28  C   UNK N   1     162.580 120.743 154.218  0.00  0.00     0.202 C 
ENDBRANCH  11  27
TORSDOF 4
ENDMDL
MODEL 9
REMARK VINA RESULT:      -6.5     35.367     38.950
REMARK  4 active torsions:
REMARK  status: ('A' for Active; 'I' for Inactive)
REMARK    1  A    between atoms: O_2  and  C_14 
REMARK    2  A    between atoms: O_4  and  C_19 
REMARK    3  A    between atoms: O_5  and  C_22 
REMARK    4  A    between atoms: C_21  and  C_23 
ROOT
HETATM    1  O   UNK N   1     153.306 160.175 153.823  0.00  0.00    -0.312 OA
HETATM    2  O   UNK N   1     154.205 158.614 155.161  0.00  0.00    -0.264 OA
HETATM    3  C   UNK N   1     151.457 159.031 153.066  0.00  0.00     0.049 C 
HETATM    4  C   UNK N   1     151.949 158.368 154.394  0.00  0.00     0.085 C 
HETATM    5  C   UNK N   1     151.958 158.347 151.721  0.00  0.00    -0.040 C 
HETATM    6  C   UNK N   1     152.073 160.444 153.257  0.00  0.00     0.171 C 
HETATM    7  C   UNK N   1     151.900 156.814 154.313  0.00  0.00     0.025 C 
HETATM    8  C   UNK N   1     151.713 156.821 151.816  0.00  0.00     0.009 C 
HETATM    9  C   UNK N   1     151.156 159.009 155.575  0.00  0.00     0.006 A 
HETATM   10  C   UNK N   1     152.445 156.217 153.018  0.00  0.00     0.002 C 
HETATM   11  C   UNK N   1     151.217 161.242 154.269  0.00  0.00     0.184 C 
HETATM   12  C   UNK N   1     153.296 158.985 154.436  0.00  0.00     0.273 C 
HETATM   13  C   UNK N   1     150.829 160.400 155.487  0.00  0.00    -0.016 A 
HETATM   14  C   UNK N   1     153.454 158.600 151.353  0.00  0.00     0.015 C 
HETATM   15  C   UNK N   1     151.116 158.898 150.546  0.00  0.00     0.015 C 
HETATM   16  C   UNK N   1     150.738 158.284 156.730  0.00  0.00     0.107 A 
HETATM   17  C   UNK N   1     150.099 161.014 156.513  0.00  0.00     0.021 A 
HETATM   18  C   UNK N   1     149.674 160.297 157.640  0.00  0.00    -0.018 A 
HETATM   19  C   UNK N   1     149.989 158.929 157.751  0.00  0.00     0.106 A 
ENDROOT
BRANCH  18  20
HETATM   20  C   UNK N   1     148.875 160.993 158.742  0.00  0.00     0.013 C 
HETATM   21  C   UNK N   1     147.409 161.186 158.335  0.00  0.00     0.015 C 
HETATM   22  C   UNK N   1     149.522 162.330 159.127  0.00  0.00     0.015 C 
ENDBRANCH  18  20
BRANCH  19  23
HETATM   23  O   UNK N   1     149.555 158.256 158.843  0.00  0.00    -0.357 OA
HETATM   24  H   UNK N   1     148.634 158.066 159.055  0.00  0.00     0.218 HD
ENDBRANCH  19  23
BRANCH  16  25
HETATM   25  O   UNK N   1     151.075 156.982 156.859  0.00  0.00    -0.357 OA
HETATM   26  H   UNK N   1     151.756 156.523 156.358  0.00  0.00     0.218 HD
ENDBRANCH  16  25
BRANCH  11  27
HETATM   27  O   UNK N   1     150.015 161.682 153.650  0.00  0.00    -0.383 OA
HETATM   28  C   UNK N   1     150.117 163.028 153.222  0.00  0.00     0.202 C 
ENDBRANCH  11  27
TORSDOF 4
ENDMDL
