MODEL 1
REMARK VINA RESULT:      -8.7      0.000      0.000
REMARK  4 active torsions:
REMARK  status: ('A' for Active; 'I' for Inactive)
REMARK    1  A    between atoms: O_2  and  C_14 
REMARK    2  A    between atoms: O_4  and  C_19 
REMARK    3  A    between atoms: O_5  and  C_22 
REMARK    4  A    between atoms: C_21  and  C_23 
ROOT
HETATM    1  O   UNK N   1     153.682 150.452 143.123  0.00  0.00    -0.312 OA
HETATM    2  O   UNK N   1     154.414 148.672 144.284  0.00  0.00    -0.264 OA
HETATM    3  C   UNK N   1     151.415 150.157 143.335  0.00  0.00     0.049 C 
HETATM    4  C   UNK N   1     152.127 149.357 144.478  0.00  0.00     0.085 C 
HETATM    5  C   UNK N   1     151.047 149.313 142.034  0.00  0.00    -0.040 C 
HETATM    6  C   UNK N   1     152.522 151.203 143.043  0.00  0.00     0.171 C 
HETATM    7  C   UNK N   1     151.471 147.960 144.690  0.00  0.00     0.025 C 
HETATM    8  C   UNK N   1     150.310 148.025 142.471  0.00  0.00     0.009 C 
HETATM    9  C   UNK N   1     152.200 150.264 145.746  0.00  0.00     0.006 A 
HETATM   10  C   UNK N   1     151.177 147.181 143.411  0.00  0.00     0.002 C 
HETATM   11  C   UNK N   1     152.532 152.267 144.163  0.00  0.00     0.181 C 
HETATM   12  C   UNK N   1     153.493 149.376 143.902  0.00  0.00     0.273 C 
HETATM   13  C   UNK N   1     152.402 151.661 145.558  0.00  0.00    -0.016 A 
HETATM   14  C   UNK N   1     152.248 148.926 141.115  0.00  0.00     0.015 C 
HETATM   15  C   UNK N   1     150.081 150.148 141.159  0.00  0.00     0.015 C 
HETATM   16  C   UNK N   1     152.080 149.774 147.077  0.00  0.00     0.107 A 
HETATM   17  C   UNK N   1     152.438 152.524 146.662  0.00  0.00     0.021 A 
HETATM   18  C   UNK N   1     152.311 152.047 147.978  0.00  0.00    -0.018 A 
HETATM   19  C   UNK N   1     152.148 150.649 148.182  0.00  0.00     0.106 A 
ENDROOT
BRANCH  18  20
HETATM   20  C   UNK N   1     152.344 153.053 149.136  0.00  0.00     0.013 C 
HETATM   21  C   UNK N   1     151.091 153.941 149.137  0.00  0.00     0.015 C 
HETATM   22  C   UNK N   1     153.619 153.901 149.091  0.00  0.00     0.015 C 
ENDBRANCH  18  20
BRANCH  19  23
HETATM   23  O   UNK N   1     152.063 150.101 149.418  0.00  0.00    -0.357 OA
HETATM   24  H   UNK N   1     151.928 150.573 150.245  0.00  0.00     0.218 HD
ENDBRANCH  19  23
BRANCH  16  25
HETATM   25  O   UNK N   1     151.912 148.454 147.307  0.00  0.00    -0.357 OA
HETATM   26  H   UNK N   1     151.083 147.984 147.146  0.00  0.00     0.218 HD
ENDBRANCH  16  25
BRANCH  11  27
HETATM   27  O   UNK N   1     153.716 153.021 144.084  0.00  0.00    -0.388 OA
HETATM   28  H   UNK N   1     153.627 153.765 144.736  0.00  0.00     0.210 HD
ENDBRANCH  11  27
TORSDOF 4
ENDMDL
MODEL 2
REMARK VINA RESULT:      -7.5      1.167      1.350
REMARK  4 active torsions:
REMARK  status: ('A' for Active; 'I' for Inactive)
REMARK    1  A    between atoms: O_2  and  C_14 
REMARK    2  A    between atoms: O_4  and  C_19 
REMARK    3  A    between atoms: O_5  and  C_22 
REMARK    4  A    between atoms: C_21  and  C_23 
ROOT
HETATM    1  O   UNK N   1     152.881 151.551 142.306  0.00  0.00    -0.312 OA
HETATM    2  O   UNK N   1     153.860 149.705 143.135  0.00  0.00    -0.264 OA
HETATM    3  C   UNK N   1     150.674 150.948 142.496  0.00  0.00     0.049 C 
HETATM    4  C   UNK N   1     151.515 150.060 143.475  0.00  0.00     0.085 C 
HETATM    5  C   UNK N   1     150.364 150.295 141.075  0.00  0.00    -0.040 C 
HETATM    6  C   UNK N   1     151.637 152.156 142.373  0.00  0.00     0.171 C 
HETATM    7  C   UNK N   1     151.038 148.578 143.454  0.00  0.00     0.025 C 
HETATM    8  C   UNK N   1     149.801 148.872 141.295  0.00  0.00     0.009 C 
HETATM    9  C   UNK N   1     151.523 150.743 144.878  0.00  0.00     0.006 A 
HETATM   10  C   UNK N   1     150.795 147.996 142.065  0.00  0.00     0.002 C 
HETATM   11  C   UNK N   1     151.560 153.010 143.658  0.00  0.00     0.181 C 
HETATM   12  C   UNK N   1     152.848 150.345 142.892  0.00  0.00     0.273 C 
HETATM   13  C   UNK N   1     151.551 152.167 144.930  0.00  0.00    -0.016 A 
HETATM   14  C   UNK N   1     151.570 150.220 140.087  0.00  0.00     0.015 C 
HETATM   15  C   UNK N   1     149.276 151.140 140.370  0.00  0.00     0.015 C 
HETATM   16  C   UNK N   1     151.508 150.026 146.107  0.00  0.00     0.107 A 
HETATM   17  C   UNK N   1     151.522 152.829 146.165  0.00  0.00     0.021 A 
HETATM   18  C   UNK N   1     151.498 152.126 147.382  0.00  0.00    -0.018 A 
HETATM   19  C   UNK N   1     151.510 150.704 147.345  0.00  0.00     0.106 A 
ENDROOT
BRANCH  18  20
HETATM   20  C   UNK N   1     151.452 152.918 148.693  0.00  0.00     0.013 C 
HETATM   21  C   UNK N   1     150.136 153.700 148.825  0.00  0.00     0.015 C 
HETATM   22  C   UNK N   1     152.660 153.852 148.815  0.00  0.00     0.015 C 
ENDBRANCH  18  20
BRANCH  19  23
HETATM   23  O   UNK N   1     151.534 149.950 148.470  0.00  0.00    -0.357 OA
HETATM   24  H   UNK N   1     150.778 149.705 149.011  0.00  0.00     0.218 HD
ENDBRANCH  19  23
BRANCH  16  25
HETATM   25  O   UNK N   1     151.507 148.675 146.111  0.00  0.00    -0.357 OA
HETATM   26  H   UNK N   1     150.747 148.140 145.846  0.00  0.00     0.218 HD
ENDBRANCH  16  25
BRANCH  11  27
HETATM   27  O   UNK N   1     152.641 153.906 143.692  0.00  0.00    -0.388 OA
HETATM   28  H   UNK N   1     152.337 154.742 143.250  0.00  0.00     0.210 HD
ENDBRANCH  11  27
TORSDOF 4
ENDMDL
MODEL 3
REMARK VINA RESULT:      -7.4     19.383     21.666
REMARK  4 active torsions:
REMARK  status: ('A' for Active; 'I' for Inactive)
REMARK    1  A    between atoms: O_2  and  C_14 
REMARK    2  A    between atoms: O_4  and  C_19 
REMARK    3  A    between atoms: O_5  and  C_22 
REMARK    4  A    between atoms: C_21  and  C_23 
ROOT
HETATM    1  O   UNK N   1     136.742 139.634 153.647  0.00  0.00    -0.312 OA
HETATM    2  O   UNK N   1     138.204 139.035 152.049  0.00  0.00    -0.264 OA
HETATM    3  C   UNK N   1     135.878 141.538 152.700  0.00  0.00     0.049 C 
HETATM    4  C   UNK N   1     136.521 140.669 151.566  0.00  0.00     0.085 C 
HETATM    5  C   UNK N   1     136.812 142.683 153.298  0.00  0.00    -0.040 C 
HETATM    6  C   UNK N   1     135.607 140.421 153.740  0.00  0.00     0.171 C 
HETATM    7  C   UNK N   1     137.316 141.548 150.555  0.00  0.00     0.025 C 
HETATM    8  C   UNK N   1     137.411 143.497 152.126  0.00  0.00     0.009 C 
HETATM    9  C   UNK N   1     135.409 139.769 150.943  0.00  0.00     0.006 A 
HETATM   10  C   UNK N   1     138.223 142.601 151.186  0.00  0.00     0.002 C 
HETATM   11  C   UNK N   1     134.382 139.592 153.296  0.00  0.00     0.181 C 
HETATM   12  C   UNK N   1     137.311 139.770 152.440  0.00  0.00     0.273 C 
HETATM   13  C   UNK N   1     134.397 139.261 151.807  0.00  0.00    -0.016 A 
HETATM   14  C   UNK N   1     137.970 142.198 154.225  0.00  0.00     0.015 C 
HETATM   15  C   UNK N   1     135.942 143.636 154.152  0.00  0.00     0.015 C 
HETATM   16  C   UNK N   1     135.352 139.424 149.563  0.00  0.00     0.107 A 
HETATM   17  C   UNK N   1     133.355 138.479 151.290  0.00  0.00     0.021 A 
HETATM   18  C   UNK N   1     133.288 138.142 149.927  0.00  0.00    -0.018 A 
HETATM   19  C   UNK N   1     134.315 138.609 149.060  0.00  0.00     0.106 A 
ENDROOT
BRANCH  18  20
HETATM   20  C   UNK N   1     132.111 137.294 149.431  0.00  0.00     0.013 C 
HETATM   21  C   UNK N   1     130.989 138.178 148.866  0.00  0.00     0.015 C 
HETATM   22  C   UNK N   1     131.584 136.381 150.542  0.00  0.00     0.015 C 
ENDBRANCH  18  20
BRANCH  19  23
HETATM   23  O   UNK N   1     134.352 138.294 147.743  0.00  0.00    -0.357 OA
HETATM   24  H   UNK N   1     134.789 138.793 147.047  0.00  0.00     0.218 HD
ENDBRANCH  19  23
BRANCH  16  25
HETATM   25  O   UNK N   1     136.303 139.860 148.709  0.00  0.00    -0.357 OA
HETATM   26  H   UNK N   1     136.109 140.248 147.845  0.00  0.00     0.218 HD
ENDBRANCH  16  25
BRANCH  11  27
HETATM   27  O   UNK N   1     134.323 138.403 154.044  0.00  0.00    -0.388 OA
HETATM   28  H   UNK N   1     133.742 138.585 154.828  0.00  0.00     0.210 HD
ENDBRANCH  11  27
TORSDOF 4
ENDMDL
MODEL 4
REMARK VINA RESULT:      -7.2     25.339     29.051
REMARK  4 active torsions:
REMARK  status: ('A' for Active; 'I' for Inactive)
REMARK    1  A    between atoms: O_2  and  C_14 
REMARK    2  A    between atoms: O_4  and  C_19 
REMARK    3  A    between atoms: O_5  and  C_22 
REMARK    4  A    between atoms: C_21  and  C_23 
ROOT
HETATM    1  O   UNK N   1     137.869 149.927 121.606  0.00  0.00    -0.312 OA
HETATM    2  O   UNK N   1     136.629 148.868 123.152  0.00  0.00    -0.264 OA
HETATM    3  C   UNK N   1     139.619 148.453 121.424  0.00  0.00     0.049 C 
HETATM    4  C   UNK N   1     138.394 147.693 122.037  0.00  0.00     0.085 C 
HETATM    5  C   UNK N   1     140.670 149.023 122.479  0.00  0.00    -0.040 C 
HETATM    6  C   UNK N   1     138.861 149.595 120.699  0.00  0.00     0.171 C 
HETATM    7  C   UNK N   1     138.831 146.750 123.197  0.00  0.00     0.025 C 
HETATM    8  C   UNK N   1     141.044 147.893 123.465  0.00  0.00     0.009 C 
HETATM    9  C   UNK N   1     137.605 147.011 120.878  0.00  0.00     0.006 A 
HETATM   10  C   UNK N   1     139.807 147.363 124.197  0.00  0.00     0.002 C 
HETATM   11  C   UNK N   1     138.205 149.042 119.415  0.00  0.00     0.181 C 
HETATM   12  C   UNK N   1     137.596 148.887 122.407  0.00  0.00     0.273 C 
HETATM   13  C   UNK N   1     137.528 147.691 119.628  0.00  0.00    -0.016 A 
HETATM   14  C   UNK N   1     140.206 150.274 123.288  0.00  0.00     0.015 C 
HETATM   15  C   UNK N   1     141.951 149.446 121.721  0.00  0.00     0.015 C 
HETATM   16  C   UNK N   1     136.955 145.750 120.998  0.00  0.00     0.107 A 
HETATM   17  C   UNK N   1     136.862 147.103 118.544  0.00  0.00     0.021 A 
HETATM   18  C   UNK N   1     136.227 145.854 118.655  0.00  0.00    -0.018 A 
HETATM   19  C   UNK N   1     136.262 145.182 119.908  0.00  0.00     0.106 A 
ENDROOT
BRANCH  18  20
HETATM   20  C   UNK N   1     135.531 145.266 117.421  0.00  0.00     0.013 C 
HETATM   21  C   UNK N   1     136.355 145.512 116.148  0.00  0.00     0.015 C 
HETATM   22  C   UNK N   1     134.111 145.823 117.273  0.00  0.00     0.015 C 
ENDBRANCH  18  20
BRANCH  19  23
HETATM   23  O   UNK N   1     135.637 143.998 120.113  0.00  0.00    -0.357 OA
HETATM   24  H   UNK N   1     135.995 143.124 119.933  0.00  0.00     0.218 HD
ENDBRANCH  19  23
BRANCH  16  25
HETATM   25  O   UNK N   1     136.978 145.078 122.170  0.00  0.00    -0.357 OA
HETATM   26  H   UNK N   1     137.187 145.490 123.019  0.00  0.00     0.218 HD
ENDBRANCH  16  25
BRANCH  11  27
HETATM   27  O   UNK N   1     137.266 149.969 118.930  0.00  0.00    -0.388 OA
HETATM   28  H   UNK N   1     136.487 149.446 118.604  0.00  0.00     0.210 HD
ENDBRANCH  11  27
TORSDOF 4
ENDMDL
MODEL 5
REMARK VINA RESULT:      -7.1     12.445     15.845
REMARK  4 active torsions:
REMARK  status: ('A' for Active; 'I' for Inactive)
REMARK    1  A    between atoms: O_2  and  C_14 
REMARK    2  A    between atoms: O_4  and  C_19 
REMARK    3  A    between atoms: O_5  and  C_22 
REMARK    4  A    between atoms: C_21  and  C_23 
ROOT
HETATM    1  O   UNK N   1     143.658 150.294 156.040  0.00  0.00    -0.312 OA
HETATM    2  O   UNK N   1     141.438 150.194 156.371  0.00  0.00    -0.264 OA
HETATM    3  C   UNK N   1     143.942 152.570 155.944  0.00  0.00     0.049 C 
HETATM    4  C   UNK N   1     142.591 152.271 156.679  0.00  0.00     0.085 C 
HETATM    5  C   UNK N   1     143.820 152.874 154.384  0.00  0.00    -0.040 C 
HETATM    6  C   UNK N   1     144.668 151.227 156.210  0.00  0.00     0.171 C 
HETATM    7  C   UNK N   1     141.466 153.245 156.224  0.00  0.00     0.025 C 
HETATM    8  C   UNK N   1     142.722 153.943 154.172  0.00  0.00     0.009 C 
HETATM    9  C   UNK N   1     142.863 152.229 158.215  0.00  0.00     0.006 A 
HETATM   10  C   UNK N   1     141.372 153.468 154.717  0.00  0.00     0.002 C 
HETATM   11  C   UNK N   1     145.152 151.184 157.676  0.00  0.00     0.181 C 
HETATM   12  C   UNK N   1     142.460 150.853 156.266  0.00  0.00     0.273 C 
HETATM   13  C   UNK N   1     144.105 151.694 158.661  0.00  0.00    -0.016 A 
HETATM   14  C   UNK N   1     143.514 151.642 153.476  0.00  0.00     0.015 C 
HETATM   15  C   UNK N   1     145.164 153.458 153.888  0.00  0.00     0.015 C 
HETATM   16  C   UNK N   1     141.939 152.693 159.194  0.00  0.00     0.107 A 
HETATM   17  C   UNK N   1     144.413 151.669 160.029  0.00  0.00     0.021 A 
HETATM   18  C   UNK N   1     143.509 152.133 161.000  0.00  0.00    -0.018 A 
HETATM   19  C   UNK N   1     142.248 152.634 160.570  0.00  0.00     0.106 A 
ENDROOT
BRANCH  18  20
HETATM   20  C   UNK N   1     143.920 152.088 162.476  0.00  0.00     0.013 C 
HETATM   21  C   UNK N   1     144.778 153.306 162.851  0.00  0.00     0.015 C 
HETATM   22  C   UNK N   1     144.648 150.781 162.804  0.00  0.00     0.015 C 
ENDBRANCH  18  20
BRANCH  19  23
HETATM   23  O   UNK N   1     141.302 153.059 161.441  0.00  0.00    -0.357 OA
HETATM   24  H   UNK N   1     140.542 152.556 161.751  0.00  0.00     0.218 HD
ENDBRANCH  19  23
BRANCH  16  25
HETATM   25  O   UNK N   1     140.738 153.186 158.822  0.00  0.00    -0.357 OA
HETATM   26  H   UNK N   1     140.592 153.675 158.002  0.00  0.00     0.218 HD
ENDBRANCH  16  25
BRANCH  11  27
HETATM   27  O   UNK N   1     145.518 149.869 158.012  0.00  0.00    -0.388 OA
HETATM   28  H   UNK N   1     145.029 149.639 158.845  0.00  0.00     0.210 HD
ENDBRANCH  11  27
TORSDOF 4
ENDMDL
MODEL 6
REMARK VINA RESULT:      -7.0      5.476      9.905
REMARK  4 active torsions:
REMARK  status: ('A' for Active; 'I' for Inactive)
REMARK    1  A    between atoms: O_2  and  C_14 
REMARK    2  A    between atoms: O_4  and  C_19 
REMARK    3  A    between atoms: O_5  and  C_22 
REMARK    4  A    between atoms: C_21  and  C_23 
ROOT
HETATM    1  O   UNK N   1     150.601 156.102 153.347  0.00  0.00    -0.312 OA
HETATM    2  O   UNK N   1     152.554 155.136 152.798  0.00  0.00    -0.264 OA
HETATM    3  C   UNK N   1     150.411 157.616 151.633  0.00  0.00     0.049 C 
HETATM    4  C   UNK N   1     151.405 156.489 151.190  0.00  0.00     0.085 C 
HETATM    5  C   UNK N   1     151.088 158.924 152.243  0.00  0.00    -0.040 C 
HETATM    6  C   UNK N   1     149.614 156.832 152.706  0.00  0.00     0.171 C 
HETATM    7  C   UNK N   1     152.637 157.077 150.440  0.00  0.00     0.025 C 
HETATM    8  C   UNK N   1     152.208 159.395 151.286  0.00  0.00     0.009 C 
HETATM    9  C   UNK N   1     150.602 155.400 150.412  0.00  0.00     0.006 A 
HETATM   10  C   UNK N   1     153.266 158.305 151.091  0.00  0.00     0.002 C 
HETATM   11  C   UNK N   1     148.638 155.857 152.011  0.00  0.00     0.181 C 
HETATM   12  C   UNK N   1     151.649 155.912 152.533  0.00  0.00     0.273 C 
HETATM   13  C   UNK N   1     149.273 155.116 150.839  0.00  0.00    -0.016 A 
HETATM   14  C   UNK N   1     151.675 158.775 153.681  0.00  0.00     0.015 C 
HETATM   15  C   UNK N   1     150.021 160.042 152.323  0.00  0.00     0.015 C 
HETATM   16  C   UNK N   1     151.123 154.673 149.305  0.00  0.00     0.107 A 
HETATM   17  C   UNK N   1     148.497 154.173 150.150  0.00  0.00     0.021 A 
HETATM   18  C   UNK N   1     149.003 153.459 149.051  0.00  0.00    -0.018 A 
HETATM   19  C   UNK N   1     150.342 153.704 148.639  0.00  0.00     0.106 A 
ENDROOT
BRANCH  18  20
HETATM   20  C   UNK N   1     148.090 152.454 148.338  0.00  0.00     0.013 C 
HETATM   21  C   UNK N   1     146.611 152.729 148.647  0.00  0.00     0.015 C 
HETATM   22  C   UNK N   1     148.469 151.014 148.699  0.00  0.00     0.015 C 
ENDBRANCH  18  20
BRANCH  19  23
HETATM   23  O   UNK N   1     150.923 153.028 147.619  0.00  0.00    -0.357 OA
HETATM   24  H   UNK N   1     151.645 153.338 147.065  0.00  0.00     0.218 HD
ENDBRANCH  19  23
BRANCH  16  25
HETATM   25  O   UNK N   1     152.387 154.889 148.879  0.00  0.00    -0.357 OA
HETATM   26  H   UNK N   1     153.100 154.242 148.970  0.00  0.00     0.218 HD
ENDBRANCH  16  25
BRANCH  11  27
HETATM   27  O   UNK N   1     148.152 154.930 152.949  0.00  0.00    -0.388 OA
HETATM   28  H   UNK N   1     148.875 154.790 153.616  0.00  0.00     0.210 HD
ENDBRANCH  11  27
TORSDOF 4
ENDMDL
MODEL 7
REMARK VINA RESULT:      -6.9      4.240      6.813
REMARK  4 active torsions:
REMARK  status: ('A' for Active; 'I' for Inactive)
REMARK    1  A    between atoms: O_2  and  C_14 
REMARK    2  A    between atoms: O_4  and  C_19 
REMARK    3  A    between atoms: O_5  and  C_22 
REMARK    4  A    between atoms: C_21  and  C_23 
ROOT
HETATM    1  O   UNK N   1     149.647 151.820 146.350  0.00  0.00    -0.312 OA
HETATM    2  O   UNK N   1     149.941 154.046 146.440  0.00  0.00    -0.264 OA
HETATM    3  C   UNK N   1     150.559 151.218 148.369  0.00  0.00     0.049 C 
HETATM    4  C   UNK N   1     150.177 152.736 148.432  0.00  0.00     0.085 C 
HETATM    5  C   UNK N   1     152.077 150.909 147.991  0.00  0.00    -0.040 C 
HETATM    6  C   UNK N   1     149.588 150.768 147.248  0.00  0.00     0.171 C 
HETATM    7  C   UNK N   1     151.280 153.573 149.146  0.00  0.00     0.025 C 
HETATM    8  C   UNK N   1     152.997 151.766 148.892  0.00  0.00     0.009 C 
HETATM    9  C   UNK N   1     148.743 152.860 149.035  0.00  0.00     0.006 A 
HETATM   10  C   UNK N   1     152.710 153.260 148.715  0.00  0.00     0.002 C 
HETATM   11  C   UNK N   1     148.155 150.671 147.817  0.00  0.00     0.181 C 
HETATM   12  C   UNK N   1     150.009 152.950 146.975  0.00  0.00     0.273 C 
HETATM   13  C   UNK N   1     147.792 151.850 148.714  0.00  0.00    -0.016 A 
HETATM   14  C   UNK N   1     152.464 151.143 146.497  0.00  0.00     0.015 C 
HETATM   15  C   UNK N   1     152.366 149.418 148.286  0.00  0.00     0.015 C 
HETATM   16  C   UNK N   1     148.333 153.926 149.885  0.00  0.00     0.107 A 
HETATM   17  C   UNK N   1     146.502 151.897 149.261  0.00  0.00     0.021 A 
HETATM   18  C   UNK N   1     146.093 152.941 150.107  0.00  0.00    -0.018 A 
HETATM   19  C   UNK N   1     147.022 153.978 150.404  0.00  0.00     0.106 A 
ENDROOT
BRANCH  18  20
HETATM   20  C   UNK N   1     144.671 152.917 150.680  0.00  0.00     0.013 C 
HETATM   21  C   UNK N   1     144.643 152.266 152.071  0.00  0.00     0.015 C 
HETATM   22  C   UNK N   1     143.705 152.211 149.723  0.00  0.00     0.015 C 
ENDBRANCH  18  20
BRANCH  19  23
HETATM   23  O   UNK N   1     146.696 155.044 151.174  0.00  0.00    -0.357 OA
HETATM   24  H   UNK N   1     146.788 155.109 152.129  0.00  0.00     0.218 HD
ENDBRANCH  19  23
BRANCH  16  25
HETATM   25  O   UNK N   1     149.192 154.921 150.199  0.00  0.00    -0.357 OA
HETATM   26  H   UNK N   1     149.690 154.955 151.026  0.00  0.00     0.218 HD
ENDBRANCH  16  25
BRANCH  11  27
HETATM   27  O   UNK N   1     147.234 150.580 146.759  0.00  0.00    -0.388 OA
HETATM   28  H   UNK N   1     146.506 149.976 147.062  0.00  0.00     0.210 HD
ENDBRANCH  11  27
TORSDOF 4
ENDMDL
MODEL 8
REMARK VINA RESULT:      -6.9     10.703     14.095
REMARK  4 active torsions:
REMARK  status: ('A' for Active; 'I' for Inactive)
REMARK    1  A    between atoms: O_2  and  C_14 
REMARK    2  A    between atoms: O_4  and  C_19 
REMARK    3  A    between atoms: O_5  and  C_22 
REMARK    4  A    between atoms: C_21  and  C_23 
ROOT
HETATM    1  O   UNK N   1     150.649 157.218 153.795  0.00  0.00    -0.312 OA
HETATM    2  O   UNK N   1     149.487 158.991 153.047  0.00  0.00    -0.264 OA
HETATM    3  C   UNK N   1     152.502 158.284 154.632  0.00  0.00     0.049 C 
HETATM    4  C   UNK N   1     151.335 159.324 154.535  0.00  0.00     0.085 C 
HETATM    5  C   UNK N   1     153.507 158.265 153.396  0.00  0.00    -0.040 C 
HETATM    6  C   UNK N   1     151.663 156.982 154.707  0.00  0.00     0.171 C 
HETATM    7  C   UNK N   1     151.837 160.696 153.997  0.00  0.00     0.025 C 
HETATM    8  C   UNK N   1     153.962 159.714 153.104  0.00  0.00     0.009 C 
HETATM    9  C   UNK N   1     150.598 159.371 155.910  0.00  0.00     0.006 A 
HETATM   10  C   UNK N   1     152.766 160.618 152.789  0.00  0.00     0.002 C 
HETATM   11  C   UNK N   1     151.050 156.845 156.119  0.00  0.00     0.181 C 
HETATM   12  C   UNK N   1     150.451 158.536 153.643  0.00  0.00     0.273 C 
HETATM   13  C   UNK N   1     150.474 158.157 156.644  0.00  0.00    -0.016 A 
HETATM   14  C   UNK N   1     152.953 157.630 152.082  0.00  0.00     0.015 C 
HETATM   15  C   UNK N   1     154.755 157.437 153.786  0.00  0.00     0.015 C 
HETATM   16  C   UNK N   1     150.042 160.556 156.469  0.00  0.00     0.107 A 
HETATM   17  C   UNK N   1     149.853 158.153 157.901  0.00  0.00     0.021 A 
HETATM   18  C   UNK N   1     149.310 159.321 158.463  0.00  0.00    -0.018 A 
HETATM   19  C   UNK N   1     149.392 160.533 157.722  0.00  0.00     0.106 A 
ENDROOT
BRANCH  18  20
HETATM   20  C   UNK N   1     148.660 159.243 159.849  0.00  0.00     0.013 C 
HETATM   21  C   UNK N   1     149.261 158.100 160.682  0.00  0.00     0.015 C 
HETATM   22  C   UNK N   1     147.139 159.099 159.736  0.00  0.00     0.015 C 
ENDBRANCH  18  20
BRANCH  19  23
HETATM   23  O   UNK N   1     148.855 161.693 158.169  0.00  0.00    -0.357 OA
HETATM   24  H   UNK N   1     148.048 161.790 158.682  0.00  0.00     0.218 HD
ENDBRANCH  19  23
BRANCH  16  25
HETATM   25  O   UNK N   1     150.112 161.727 155.800  0.00  0.00    -0.357 OA
HETATM   26  H   UNK N   1     149.762 161.855 154.908  0.00  0.00     0.218 HD
ENDBRANCH  16  25
BRANCH  11  27
HETATM   27  O   UNK N   1     150.047 155.861 156.102  0.00  0.00    -0.388 OA
HETATM   28  H   UNK N   1     149.534 155.987 155.261  0.00  0.00     0.210 HD
ENDBRANCH  11  27
TORSDOF 4
ENDMDL
MODEL 9
REMARK VINA RESULT:      -6.8      7.669     11.348
REMARK  4 active torsions:
REMARK  status: ('A' for Active; 'I' for Inactive)
REMARK    1  A    between atoms: O_2  and  C_14 
REMARK    2  A    between atoms: O_4  and  C_19 
REMARK    3  A    between atoms: O_5  and  C_22 
REMARK    4  A    between atoms: C_21  and  C_23 
ROOT
HETATM    1  O   UNK N   1     152.050 158.836 151.052  0.00  0.00    -0.312 OA
HETATM    2  O   UNK N   1     150.501 160.184 151.965  0.00  0.00    -0.264 OA
HETATM    3  C   UNK N   1     152.450 157.435 152.826  0.00  0.00     0.049 C 
HETATM    4  C   UNK N   1     151.056 158.116 153.039  0.00  0.00     0.085 C 
HETATM    5  C   UNK N   1     153.676 158.140 153.561  0.00  0.00    -0.040 C 
HETATM    6  C   UNK N   1     152.555 157.568 151.285  0.00  0.00     0.171 C 
HETATM    7  C   UNK N   1     150.852 158.547 154.521  0.00  0.00     0.025 C 
HETATM    8  C   UNK N   1     153.297 158.377 155.042  0.00  0.00     0.009 C 
HETATM    9  C   UNK N   1     149.954 157.178 152.455  0.00  0.00     0.006 A 
HETATM   10  C   UNK N   1     152.045 159.252 155.160  0.00  0.00     0.002 C 
HETATM   11  C   UNK N   1     151.632 156.527 150.615  0.00  0.00     0.181 C 
HETATM   12  C   UNK N   1     151.219 159.199 152.040  0.00  0.00     0.273 C 
HETATM   13  C   UNK N   1     150.263 156.431 151.282  0.00  0.00    -0.016 A 
HETATM   14  C   UNK N   1     154.157 159.487 152.936  0.00  0.00     0.015 C 
HETATM   15  C   UNK N   1     154.893 157.184 153.522  0.00  0.00     0.015 C 
HETATM   16  C   UNK N   1     148.658 157.030 153.025  0.00  0.00     0.107 A 
HETATM   17  C   UNK N   1     149.320 155.547 150.739  0.00  0.00     0.021 A 
HETATM   18  C   UNK N   1     148.042 155.390 151.303  0.00  0.00    -0.018 A 
HETATM   19  C   UNK N   1     147.707 156.160 152.451  0.00  0.00     0.106 A 
ENDROOT
BRANCH  18  20
HETATM   20  C   UNK N   1     147.069 154.392 150.664  0.00  0.00     0.013 C 
HETATM   21  C   UNK N   1     147.800 153.434 149.712  0.00  0.00     0.015 C 
HETATM   22  C   UNK N   1     145.930 155.121 149.943  0.00  0.00     0.015 C 
ENDBRANCH  18  20
BRANCH  19  23
HETATM   23  O   UNK N   1     146.483 156.103 153.030  0.00  0.00    -0.357 OA
HETATM   24  H   UNK N   1     146.264 155.678 153.864  0.00  0.00     0.218 HD
ENDBRANCH  19  23
BRANCH  16  25
HETATM   25  O   UNK N   1     148.309 157.736 154.122  0.00  0.00    -0.357 OA
HETATM   26  H   UNK N   1     148.894 157.872 154.880  0.00  0.00     0.218 HD
ENDBRANCH  16  25
BRANCH  11  27
HETATM   27  O   UNK N   1     151.474 156.845 149.255  0.00  0.00    -0.388 OA
HETATM   28  H   UNK N   1     150.497 156.879 149.079  0.00  0.00     0.210 HD
ENDBRANCH  11  27
TORSDOF 4
ENDMDL
