MODEL 1
REMARK VINA RESULT:      -8.0      0.000      0.000
REMARK  5 active torsions:
REMARK  status: ('A' for Active; 'I' for Inactive)
REMARK    1  A    between atoms: O_3  and  C_19 
REMARK    2  A    between atoms: O_4  and  C_22 
REMARK    3  A    between atoms: O_5  and  C_24 
REMARK    4  A    between atoms: C_21  and  C_23 
REMARK    5  A    between atoms: C_23  and  C_24 
ROOT
HETATM    1  O   UNK N   1     151.986 148.604 143.436  0.00  0.00    -0.310 OA
HETATM    2  O   UNK N   1     150.069 147.786 142.560  0.00  0.00    -0.264 OA
HETATM    3  C   UNK N   1     150.991 151.130 142.553  0.00  0.00     0.019 C 
HETATM    4  C   UNK N   1     150.058 150.091 143.291  0.00  0.00     0.083 C 
HETATM    5  C   UNK N   1     150.763 151.246 140.992  0.00  0.00    -0.043 C 
HETATM    6  C   UNK N   1     152.500 150.881 142.975  0.00  0.00     0.044 C 
HETATM    7  C   UNK N   1     148.582 150.263 142.849  0.00  0.00     0.025 C 
HETATM    8  C   UNK N   1     149.243 151.425 140.727  0.00  0.00     0.009 C 
HETATM    9  C   UNK N   1     152.572 149.733 144.021  0.00  0.00     0.166 C 
HETATM   10  C   UNK N   1     150.320 150.306 144.808  0.00  0.00     0.006 A 
HETATM   11  C   UNK N   1     148.404 150.284 141.330  0.00  0.00     0.002 C 
HETATM   12  C   UNK N   1     151.668 150.134 145.166  0.00  0.00    -0.018 A 
HETATM   13  C   UNK N   1     150.681 148.727 143.038  0.00  0.00     0.273 C 
HETATM   14  C   UNK N   1     151.276 150.027 140.172  0.00  0.00     0.015 C 
HETATM   15  C   UNK N   1     151.496 152.499 140.462  0.00  0.00     0.015 C 
HETATM   16  C   UNK N   1     149.373 150.634 145.808  0.00  0.00     0.107 A 
HETATM   17  C   UNK N   1     152.096 150.287 146.482  0.00  0.00     0.021 A 
HETATM   18  C   UNK N   1     151.177 150.646 147.484  0.00  0.00    -0.016 A 
HETATM   19  C   UNK N   1     149.812 150.828 147.149  0.00  0.00     0.106 A 
ENDROOT
BRANCH  18  20
HETATM   20  C   UNK N   1     151.646 150.828 148.925  0.00  0.00     0.041 C 
HETATM   21  C   UNK N   1     152.711 151.928 149.019  0.00  0.00     0.017 C 
BRANCH  20  22
HETATM   22  C   UNK N   1     152.159 149.504 149.515  0.00  0.00     0.173 C 
BRANCH  22  23
HETATM   23  O   UNK N   1     151.408 149.176 150.652  0.00  0.00    -0.400 OA
HETATM   24  H   UNK N   1     151.099 148.243 150.521  0.00  0.00     0.209 HD
ENDBRANCH  22  23
ENDBRANCH  20  22
ENDBRANCH  18  20
BRANCH  19  25
HETATM   25  O   UNK N   1     148.950 151.197 148.125  0.00  0.00    -0.357 OA
HETATM   26  H   UNK N   1     148.319 151.923 148.057  0.00  0.00     0.218 HD
ENDBRANCH  19  25
BRANCH  16  27
HETATM   27  O   UNK N   1     148.065 150.746 145.484  0.00  0.00    -0.357 OA
HETATM   28  H   UNK N   1     147.624 151.567 145.244  0.00  0.00     0.218 HD
ENDBRANCH  16  27
TORSDOF 5
ENDMDL
MODEL 2
REMARK VINA RESULT:      -7.5      1.844      2.562
REMARK  5 active torsions:
REMARK  status: ('A' for Active; 'I' for Inactive)
REMARK    1  A    between atoms: O_3  and  C_19 
REMARK    2  A    between atoms: O_4  and  C_22 
REMARK    3  A    between atoms: O_5  and  C_24 
REMARK    4  A    between atoms: C_21  and  C_23 
REMARK    5  A    between atoms: C_23  and  C_24 
ROOT
HETATM    1  O   UNK N   1     149.266 148.854 143.113  0.00  0.00    -0.310 OA
HETATM    2  O   UNK N   1     148.324 150.455 141.825  0.00  0.00    -0.264 OA
HETATM    3  C   UNK N   1     151.686 149.602 141.798  0.00  0.00     0.019 C 
HETATM    4  C   UNK N   1     150.676 150.688 142.340  0.00  0.00     0.083 C 
HETATM    5  C   UNK N   1     151.680 149.403 140.230  0.00  0.00    -0.043 C 
HETATM    6  C   UNK N   1     151.518 148.260 142.627  0.00  0.00     0.044 C 
HETATM    7  C   UNK N   1     150.767 151.993 141.507  0.00  0.00     0.025 C 
HETATM    8  C   UNK N   1     151.790 150.798 139.554  0.00  0.00     0.009 C 
HETATM    9  C   UNK N   1     150.453 148.459 143.742  0.00  0.00     0.166 C 
HETATM   10  C   UNK N   1     151.010 150.846 143.850  0.00  0.00     0.006 A 
HETATM   11  C   UNK N   1     150.671 151.756 139.999  0.00  0.00     0.002 C 
HETATM   12  C   UNK N   1     150.908 149.643 144.568  0.00  0.00    -0.018 A 
HETATM   13  C   UNK N   1     149.317 150.005 142.373  0.00  0.00     0.273 C 
HETATM   14  C   UNK N   1     150.421 148.675 139.677  0.00  0.00     0.015 C 
HETATM   15  C   UNK N   1     152.914 148.568 139.817  0.00  0.00     0.015 C 
HETATM   16  C   UNK N   1     151.380 152.031 144.531  0.00  0.00     0.107 A 
HETATM   17  C   UNK N   1     151.172 149.586 145.934  0.00  0.00     0.021 A 
HETATM   18  C   UNK N   1     151.573 150.746 146.622  0.00  0.00    -0.016 A 
HETATM   19  C   UNK N   1     151.687 151.972 145.920  0.00  0.00     0.106 A 
ENDROOT
BRANCH  18  20
HETATM   20  C   UNK N   1     151.877 150.683 148.117  0.00  0.00     0.041 C 
HETATM   21  C   UNK N   1     152.769 149.480 148.445  0.00  0.00     0.017 C 
BRANCH  20  22
HETATM   22  C   UNK N   1     150.583 150.660 148.946  0.00  0.00     0.173 C 
BRANCH  22  23
HETATM   23  O   UNK N   1     150.153 149.335 149.107  0.00  0.00    -0.400 OA
HETATM   24  H   UNK N   1     149.385 149.215 148.492  0.00  0.00     0.209 HD
ENDBRANCH  22  23
ENDBRANCH  20  22
ENDBRANCH  18  20
BRANCH  19  25
HETATM   25  O   UNK N   1     152.098 153.069 146.598  0.00  0.00    -0.357 OA
HETATM   26  H   UNK N   1     152.274 153.929 146.198  0.00  0.00     0.218 HD
ENDBRANCH  19  25
BRANCH  16  27
HETATM   27  O   UNK N   1     151.426 153.205 143.861  0.00  0.00    -0.357 OA
HETATM   28  H   UNK N   1     150.984 154.015 144.135  0.00  0.00     0.218 HD
ENDBRANCH  16  27
TORSDOF 5
ENDMDL
MODEL 3
REMARK VINA RESULT:      -7.1     40.532     43.969
REMARK  5 active torsions:
REMARK  status: ('A' for Active; 'I' for Inactive)
REMARK    1  A    between atoms: O_3  and  C_19 
REMARK    2  A    between atoms: O_4  and  C_22 
REMARK    3  A    between atoms: O_5  and  C_24 
REMARK    4  A    between atoms: C_21  and  C_23 
REMARK    5  A    between atoms: C_23  and  C_24 
ROOT
HETATM    1  O   UNK N   1     153.605 142.694 185.393  0.00  0.00    -0.310 OA
HETATM    2  O   UNK N   1     152.186 141.046 184.775  0.00  0.00    -0.264 OA
HETATM    3  C   UNK N   1     151.352 143.733 186.805  0.00  0.00     0.019 C 
HETATM    4  C   UNK N   1     151.713 142.196 186.849  0.00  0.00     0.083 C 
HETATM    5  C   UNK N   1     150.112 144.105 185.897  0.00  0.00    -0.043 C 
HETATM    6  C   UNK N   1     152.660 144.576 186.500  0.00  0.00     0.044 C 
HETATM    7  C   UNK N   1     150.443 141.336 187.079  0.00  0.00     0.025 C 
HETATM    8  C   UNK N   1     148.932 143.164 186.263  0.00  0.00     0.009 C 
HETATM    9  C   UNK N   1     153.888 143.627 186.398  0.00  0.00     0.166 C 
HETATM   10  C   UNK N   1     152.806 142.060 187.945  0.00  0.00     0.006 A 
HETATM   11  C   UNK N   1     149.301 141.676 186.121  0.00  0.00     0.002 C 
HETATM   12  C   UNK N   1     153.942 142.849 187.695  0.00  0.00    -0.018 A 
HETATM   13  C   UNK N   1     152.490 141.919 185.572  0.00  0.00     0.273 C 
HETATM   14  C   UNK N   1     150.379 144.005 184.368  0.00  0.00     0.015 C 
HETATM   15  C   UNK N   1     149.681 145.559 186.195  0.00  0.00     0.015 C 
HETATM   16  C   UNK N   1     152.767 141.251 189.107  0.00  0.00     0.107 A 
HETATM   17  C   UNK N   1     155.027 142.861 188.568  0.00  0.00     0.021 A 
HETATM   18  C   UNK N   1     154.993 142.089 189.743  0.00  0.00    -0.016 A 
HETATM   19  C   UNK N   1     153.858 141.287 190.021  0.00  0.00     0.106 A 
ENDROOT
BRANCH  18  20
HETATM   20  C   UNK N   1     156.175 142.111 190.709  0.00  0.00     0.041 C 
HETATM   21  C   UNK N   1     156.785 143.516 190.796  0.00  0.00     0.017 C 
BRANCH  20  22
HETATM   22  C   UNK N   1     157.234 141.068 190.315  0.00  0.00     0.173 C 
BRANCH  22  23
HETATM   23  O   UNK N   1     156.917 139.834 190.900  0.00  0.00    -0.400 OA
HETATM   24  H   UNK N   1     157.695 139.241 190.736  0.00  0.00     0.209 HD
ENDBRANCH  22  23
ENDBRANCH  20  22
ENDBRANCH  18  20
BRANCH  19  25
HETATM   25  O   UNK N   1     153.837 140.572 191.170  0.00  0.00    -0.357 OA
HETATM   26  H   UNK N   1     153.152 140.636 191.846  0.00  0.00     0.218 HD
ENDBRANCH  19  25
BRANCH  16  27
HETATM   27  O   UNK N   1     151.704 140.445 189.328  0.00  0.00    -0.357 OA
HETATM   28  H   UNK N   1     151.706 139.672 189.903  0.00  0.00     0.218 HD
ENDBRANCH  16  27
TORSDOF 5
ENDMDL
MODEL 4
REMARK VINA RESULT:      -6.8     38.386     41.676
REMARK  5 active torsions:
REMARK  status: ('A' for Active; 'I' for Inactive)
REMARK    1  A    between atoms: O_3  and  C_19 
REMARK    2  A    between atoms: O_4  and  C_22 
REMARK    3  A    between atoms: O_5  and  C_24 
REMARK    4  A    between atoms: C_21  and  C_23 
REMARK    5  A    between atoms: C_23  and  C_24 
ROOT
HETATM    1  O   UNK N   1     130.078 166.631 177.487  0.00  0.00    -0.310 OA
HETATM    2  O   UNK N   1     131.290 168.491 177.912  0.00  0.00    -0.264 OA
HETATM    3  C   UNK N   1     132.512 165.627 176.384  0.00  0.00     0.019 C 
HETATM    4  C   UNK N   1     132.490 166.397 177.762  0.00  0.00     0.083 C 
HETATM    5  C   UNK N   1     133.079 166.454 175.162  0.00  0.00    -0.043 C 
HETATM    6  C   UNK N   1     131.094 164.967 176.123  0.00  0.00     0.044 C 
HETATM    7  C   UNK N   1     133.843 167.111 178.018  0.00  0.00     0.025 C 
HETATM    8  C   UNK N   1     134.435 167.088 175.581  0.00  0.00     0.009 C 
HETATM    9  C   UNK N   1     130.154 165.242 177.331  0.00  0.00     0.166 C 
HETATM   10  C   UNK N   1     132.098 165.333 178.825  0.00  0.00     0.006 A 
HETATM   11  C   UNK N   1     134.308 167.966 176.838  0.00  0.00     0.002 C 
HETATM   12  C   UNK N   1     130.863 164.716 178.560  0.00  0.00    -0.018 A 
HETATM   13  C   UNK N   1     131.258 167.288 177.716  0.00  0.00     0.273 C 
HETATM   14  C   UNK N   1     132.135 167.579 174.650  0.00  0.00     0.015 C 
HETATM   15  C   UNK N   1     133.341 165.497 173.976  0.00  0.00     0.015 C 
HETATM   16  C   UNK N   1     132.828 164.954 179.977  0.00  0.00     0.107 A 
HETATM   17  C   UNK N   1     130.345 163.733 179.399  0.00  0.00     0.021 A 
HETATM   18  C   UNK N   1     131.071 163.320 180.530  0.00  0.00    -0.016 A 
HETATM   19  C   UNK N   1     132.321 163.924 180.819  0.00  0.00     0.106 A 
ENDROOT
BRANCH  18  20
HETATM   20  C   UNK N   1     130.512 162.233 181.445  0.00  0.00     0.041 C 
HETATM   21  C   UNK N   1     129.555 161.312 180.679  0.00  0.00     0.017 C 
BRANCH  20  22
HETATM   22  C   UNK N   1     129.829 162.843 182.680  0.00  0.00     0.173 C 
BRANCH  22  23
HETATM   23  O   UNK N   1     130.704 162.791 183.774  0.00  0.00    -0.400 OA
HETATM   24  H   UNK N   1     130.182 163.090 184.562  0.00  0.00     0.209 HD
ENDBRANCH  22  23
ENDBRANCH  20  22
ENDBRANCH  18  20
BRANCH  19  25
HETATM   25  O   UNK N   1     133.013 163.493 181.900  0.00  0.00    -0.357 OA
HETATM   26  H   UNK N   1     133.447 162.635 181.969  0.00  0.00     0.218 HD
ENDBRANCH  19  25
BRANCH  16  27
HETATM   27  O   UNK N   1     133.989 165.581 180.272  0.00  0.00    -0.357 OA
HETATM   28  H   UNK N   1     134.390 166.279 179.743  0.00  0.00     0.218 HD
ENDBRANCH  16  27
TORSDOF 5
ENDMDL
MODEL 5
REMARK VINA RESULT:      -6.7     42.648     45.065
REMARK  5 active torsions:
REMARK  status: ('A' for Active; 'I' for Inactive)
REMARK    1  A    between atoms: O_3  and  C_19 
REMARK    2  A    between atoms: O_4  and  C_22 
REMARK    3  A    between atoms: O_5  and  C_24 
REMARK    4  A    between atoms: C_21  and  C_23 
REMARK    5  A    between atoms: C_23  and  C_24 
ROOT
HETATM    1  O   UNK N   1     141.114 161.127 188.363  0.00  0.00    -0.310 OA
HETATM    2  O   UNK N   1     140.049 159.483 187.235  0.00  0.00    -0.264 OA
HETATM    3  C   UNK N   1     142.654 158.995 189.472  0.00  0.00     0.019 C 
HETATM    4  C   UNK N   1     142.325 159.055 187.929  0.00  0.00     0.083 C 
HETATM    5  C   UNK N   1     141.822 157.932 190.294  0.00  0.00    -0.043 C 
HETATM    6  C   UNK N   1     142.621 160.460 190.079  0.00  0.00     0.044 C 
HETATM    7  C   UNK N   1     142.284 157.631 187.317  0.00  0.00     0.025 C 
HETATM    8  C   UNK N   1     141.896 156.567 189.554  0.00  0.00     0.009 C 
HETATM    9  C   UNK N   1     142.331 161.491 188.952  0.00  0.00     0.166 C 
HETATM   10  C   UNK N   1     143.393 160.004 187.316  0.00  0.00     0.006 A 
HETATM   11  C   UNK N   1     141.399 156.661 188.101  0.00  0.00     0.002 C 
HETATM   12  C   UNK N   1     143.392 161.285 187.893  0.00  0.00    -0.018 A 
HETATM   13  C   UNK N   1     141.050 159.874 187.812  0.00  0.00     0.273 C 
HETATM   14  C   UNK N   1     140.328 158.307 190.510  0.00  0.00     0.015 C 
HETATM   15  C   UNK N   1     142.459 157.757 191.692  0.00  0.00     0.015 C 
HETATM   16  C   UNK N   1     144.312 159.712 186.279  0.00  0.00     0.107 A 
HETATM   17  C   UNK N   1     144.280 162.273 187.476  0.00  0.00     0.021 A 
HETATM   18  C   UNK N   1     145.222 161.992 186.470  0.00  0.00    -0.016 A 
HETATM   19  C   UNK N   1     145.247 160.707 185.873  0.00  0.00     0.106 A 
ENDROOT
BRANCH  18  20
HETATM   20  C   UNK N   1     146.206 163.069 186.020  0.00  0.00     0.041 C 
HETATM   21  C   UNK N   1     146.674 163.915 187.210  0.00  0.00     0.017 C 
BRANCH  20  22
HETATM   22  C   UNK N   1     145.600 163.949 184.915  0.00  0.00     0.173 C 
BRANCH  22  23
HETATM   23  O   UNK N   1     145.541 163.222 183.717  0.00  0.00    -0.400 OA
HETATM   24  H   UNK N   1     144.710 162.682 183.761  0.00  0.00     0.209 HD
ENDBRANCH  22  23
ENDBRANCH  20  22
ENDBRANCH  18  20
BRANCH  19  25
HETATM   25  O   UNK N   1     146.179 160.452 184.924  0.00  0.00    -0.357 OA
HETATM   26  H   UNK N   1     146.362 161.019 184.167  0.00  0.00     0.218 HD
ENDBRANCH  19  25
BRANCH  16  27
HETATM   27  O   UNK N   1     144.284 158.502 185.677  0.00  0.00    -0.357 OA
HETATM   28  H   UNK N   1     143.915 158.326 184.805  0.00  0.00     0.218 HD
ENDBRANCH  16  27
TORSDOF 5
ENDMDL
MODEL 6
REMARK VINA RESULT:      -6.6     31.478     35.059
REMARK  5 active torsions:
REMARK  status: ('A' for Active; 'I' for Inactive)
REMARK    1  A    between atoms: O_3  and  C_19 
REMARK    2  A    between atoms: O_4  and  C_22 
REMARK    3  A    between atoms: O_5  and  C_24 
REMARK    4  A    between atoms: C_21  and  C_23 
REMARK    5  A    between atoms: C_23  and  C_24 
ROOT
HETATM    1  O   UNK N   1     167.996 148.999 111.798  0.00  0.00    -0.310 OA
HETATM    2  O   UNK N   1     166.371 149.957 110.553  0.00  0.00    -0.264 OA
HETATM    3  C   UNK N   1     168.497 151.660 112.701  0.00  0.00     0.019 C 
HETATM    4  C   UNK N   1     167.027 151.094 112.584  0.00  0.00     0.083 C 
HETATM    5  C   UNK N   1     168.916 152.679 111.567  0.00  0.00    -0.043 C 
HETATM    6  C   UNK N   1     169.513 150.459 112.907  0.00  0.00     0.044 C 
HETATM    7  C   UNK N   1     166.015 152.238 112.316  0.00  0.00     0.025 C 
HETATM    8  C   UNK N   1     167.805 153.759 111.438  0.00  0.00     0.009 C 
HETATM    9  C   UNK N   1     168.733 149.116 112.983  0.00  0.00     0.166 C 
HETATM   10  C   UNK N   1     166.786 150.297 113.896  0.00  0.00     0.006 A 
HETATM   11  C   UNK N   1     166.422 153.146 111.155  0.00  0.00     0.002 C 
HETATM   12  C   UNK N   1     167.720 149.267 114.098  0.00  0.00    -0.018 A 
HETATM   13  C   UNK N   1     167.092 149.994 111.537  0.00  0.00     0.273 C 
HETATM   14  C   UNK N   1     169.152 152.032 110.173  0.00  0.00     0.015 C 
HETATM   15  C   UNK N   1     170.229 153.385 111.976  0.00  0.00     0.015 C 
HETATM   16  C   UNK N   1     165.761 150.499 114.852  0.00  0.00     0.107 A 
HETATM   17  C   UNK N   1     167.667 148.445 115.220  0.00  0.00     0.021 A 
HETATM   18  C   UNK N   1     166.676 148.651 116.197  0.00  0.00    -0.016 A 
HETATM   19  C   UNK N   1     165.724 149.685 116.020  0.00  0.00     0.106 A 
ENDROOT
BRANCH  18  20
HETATM   20  C   UNK N   1     166.624 147.760 117.435  0.00  0.00     0.041 C 
HETATM   21  C   UNK N   1     167.707 148.161 118.444  0.00  0.00     0.017 C 
BRANCH  20  22
HETATM   22  C   UNK N   1     166.738 146.275 117.057  0.00  0.00     0.173 C 
BRANCH  22  23
HETATM   23  O   UNK N   1     165.626 145.578 117.551  0.00  0.00    -0.400 OA
HETATM   24  H   UNK N   1     165.939 145.090 118.356  0.00  0.00     0.209 HD
ENDBRANCH  22  23
ENDBRANCH  20  22
ENDBRANCH  18  20
BRANCH  19  25
HETATM   25  O   UNK N   1     164.795 149.881 116.985  0.00  0.00    -0.357 OA
HETATM   26  H   UNK N   1     164.955 149.784 117.930  0.00  0.00     0.218 HD
ENDBRANCH  19  25
BRANCH  16  27
HETATM   27  O   UNK N   1     164.823 151.450 114.640  0.00  0.00    -0.357 OA
HETATM   28  H   UNK N   1     165.008 152.378 114.459  0.00  0.00     0.218 HD
ENDBRANCH  16  27
TORSDOF 5
ENDMDL
MODEL 7
REMARK VINA RESULT:      -6.6     35.971     39.029
REMARK  5 active torsions:
REMARK  status: ('A' for Active; 'I' for Inactive)
REMARK    1  A    between atoms: O_3  and  C_19 
REMARK    2  A    between atoms: O_4  and  C_22 
REMARK    3  A    between atoms: O_5  and  C_24 
REMARK    4  A    between atoms: C_21  and  C_23 
REMARK    5  A    between atoms: C_23  and  C_24 
ROOT
HETATM    1  O   UNK N   1     150.023 170.408 179.437  0.00  0.00    -0.310 OA
HETATM    2  O   UNK N   1     150.974 171.243 177.565  0.00  0.00    -0.264 OA
HETATM    3  C   UNK N   1     149.390 168.166 177.789  0.00  0.00     0.019 C 
HETATM    4  C   UNK N   1     150.819 168.837 177.750  0.00  0.00     0.083 C 
HETATM    5  C   UNK N   1     148.462 168.492 176.551  0.00  0.00    -0.043 C 
HETATM    6  C   UNK N   1     148.716 168.435 179.199  0.00  0.00     0.044 C 
HETATM    7  C   UNK N   1     151.480 168.650 176.359  0.00  0.00     0.025 C 
HETATM    8  C   UNK N   1     149.270 168.241 175.248  0.00  0.00     0.009 C 
HETATM    9  C   UNK N   1     149.697 169.224 180.111  0.00  0.00     0.166 C 
HETATM   10  C   UNK N   1     151.601 168.213 178.939  0.00  0.00     0.006 A 
HETATM   11  C   UNK N   1     150.572 169.059 175.198  0.00  0.00     0.002 C 
HETATM   12  C   UNK N   1     150.972 168.411 180.180  0.00  0.00    -0.018 A 
HETATM   13  C   UNK N   1     150.611 170.272 178.208  0.00  0.00     0.273 C 
HETATM   14  C   UNK N   1     147.905 169.944 176.526  0.00  0.00     0.015 C 
HETATM   15  C   UNK N   1     147.248 167.534 176.558  0.00  0.00     0.015 C 
HETATM   16  C   UNK N   1     152.828 167.508 178.889  0.00  0.00     0.107 A 
HETATM   17  C   UNK N   1     151.522 167.923 181.362  0.00  0.00     0.021 A 
HETATM   18  C   UNK N   1     152.723 167.191 181.328  0.00  0.00    -0.016 A 
HETATM   19  C   UNK N   1     153.377 166.974 180.090  0.00  0.00     0.106 A 
ENDROOT
BRANCH  18  20
HETATM   20  C   UNK N   1     153.322 166.641 182.621  0.00  0.00     0.041 C 
HETATM   21  C   UNK N   1     152.235 166.016 183.505  0.00  0.00     0.017 C 
BRANCH  20  22
HETATM   22  C   UNK N   1     154.100 167.729 183.379  0.00  0.00     0.173 C 
BRANCH  22  23
HETATM   23  O   UNK N   1     153.439 168.027 184.579  0.00  0.00    -0.400 OA
HETATM   24  H   UNK N   1     153.206 167.156 184.992  0.00  0.00     0.209 HD
ENDBRANCH  22  23
ENDBRANCH  20  22
ENDBRANCH  18  20
BRANCH  19  25
HETATM   25  O   UNK N   1     154.518 166.246 180.079  0.00  0.00    -0.357 OA
HETATM   26  H   UNK N   1     154.736 165.575 179.422  0.00  0.00     0.218 HD
ENDBRANCH  19  25
BRANCH  16  27
HETATM   27  O   UNK N   1     153.470 167.361 177.708  0.00  0.00    -0.357 OA
HETATM   28  H   UNK N   1     153.039 167.276 176.851  0.00  0.00     0.218 HD
ENDBRANCH  16  27
TORSDOF 5
ENDMDL
MODEL 8
REMARK VINA RESULT:      -6.5     39.819     43.671
REMARK  5 active torsions:
REMARK  status: ('A' for Active; 'I' for Inactive)
REMARK    1  A    between atoms: O_3  and  C_19 
REMARK    2  A    between atoms: O_4  and  C_22 
REMARK    3  A    between atoms: O_5  and  C_24 
REMARK    4  A    between atoms: C_21  and  C_23 
REMARK    5  A    between atoms: C_23  and  C_24 
ROOT
HETATM    1  O   UNK N   1     154.926 168.868 186.142  0.00  0.00    -0.310 OA
HETATM    2  O   UNK N   1     156.807 167.815 186.819  0.00  0.00    -0.264 OA
HETATM    3  C   UNK N   1     156.628 170.076 184.195  0.00  0.00     0.019 C 
HETATM    4  C   UNK N   1     156.708 168.531 184.512  0.00  0.00     0.083 C 
HETATM    5  C   UNK N   1     157.807 170.944 184.790  0.00  0.00    -0.043 C 
HETATM    6  C   UNK N   1     155.179 170.615 184.547  0.00  0.00     0.044 C 
HETATM    7  C   UNK N   1     158.134 167.984 184.242  0.00  0.00     0.025 C 
HETATM    8  C   UNK N   1     159.156 170.267 184.420  0.00  0.00     0.009 C 
HETATM    9  C   UNK N   1     154.284 169.441 185.037  0.00  0.00     0.166 C 
HETATM   10  C   UNK N   1     155.581 167.876 183.664  0.00  0.00     0.006 A 
HETATM   11  C   UNK N   1     159.234 168.810 184.909  0.00  0.00     0.002 C 
HETATM   12  C   UNK N   1     154.306 168.395 183.944  0.00  0.00    -0.018 A 
HETATM   13  C   UNK N   1     156.186 168.375 185.931  0.00  0.00     0.273 C 
HETATM   14  C   UNK N   1     157.750 171.140 186.333  0.00  0.00     0.015 C 
HETATM   15  C   UNK N   1     157.780 172.350 184.147  0.00  0.00     0.015 C 
HETATM   16  C   UNK N   1     155.716 166.855 182.693  0.00  0.00     0.107 A 
HETATM   17  C   UNK N   1     153.171 167.934 183.283  0.00  0.00     0.021 A 
HETATM   18  C   UNK N   1     153.289 166.944 182.291  0.00  0.00    -0.016 A 
HETATM   19  C   UNK N   1     154.564 166.406 181.986  0.00  0.00     0.106 A 
ENDROOT
BRANCH  18  20
HETATM   20  C   UNK N   1     152.047 166.446 181.554  0.00  0.00     0.041 C 
HETATM   21  C   UNK N   1     151.594 167.462 180.498  0.00  0.00     0.017 C 
BRANCH  20  22
HETATM   22  C   UNK N   1     150.911 166.119 182.536  0.00  0.00     0.173 C 
BRANCH  22  23
HETATM   23  O   UNK N   1     151.237 164.965 183.262  0.00  0.00    -0.400 OA
HETATM   24  H   UNK N   1     150.381 164.600 183.604  0.00  0.00     0.209 HD
ENDBRANCH  22  23
ENDBRANCH  20  22
ENDBRANCH  18  20
BRANCH  19  25
HETATM   25  O   UNK N   1     154.656 165.472 181.011  0.00  0.00    -0.357 OA
HETATM   26  H   UNK N   1     153.957 164.850 180.777  0.00  0.00     0.218 HD
ENDBRANCH  19  25
BRANCH  16  27
HETATM   27  O   UNK N   1     156.930 166.310 182.455  0.00  0.00    -0.357 OA
HETATM   28  H   UNK N   1     157.231 165.981 181.602  0.00  0.00     0.218 HD
ENDBRANCH  16  27
TORSDOF 5
ENDMDL
MODEL 9
REMARK VINA RESULT:      -6.5      9.591     12.873
REMARK  5 active torsions:
REMARK  status: ('A' for Active; 'I' for Inactive)
REMARK    1  A    between atoms: O_3  and  C_19 
REMARK    2  A    between atoms: O_4  and  C_22 
REMARK    3  A    between atoms: O_5  and  C_24 
REMARK    4  A    between atoms: C_21  and  C_23 
REMARK    5  A    between atoms: C_23  and  C_24 
ROOT
HETATM    1  O   UNK N   1     152.526 158.329 153.733  0.00  0.00    -0.310 OA
HETATM    2  O   UNK N   1     151.155 156.774 154.632  0.00  0.00    -0.264 OA
HETATM    3  C   UNK N   1     151.031 157.874 151.345  0.00  0.00     0.019 C 
HETATM    4  C   UNK N   1     150.317 158.031 152.745  0.00  0.00     0.083 C 
HETATM    5  C   UNK N   1     151.100 156.395 150.790  0.00  0.00    -0.043 C 
HETATM    6  C   UNK N   1     152.428 158.625 151.374  0.00  0.00     0.044 C 
HETATM    7  C   UNK N   1     148.977 157.251 152.772  0.00  0.00     0.025 C 
HETATM    8  C   UNK N   1     149.680 155.768 150.877  0.00  0.00     0.009 C 
HETATM    9  C   UNK N   1     152.622 159.322 152.751  0.00  0.00     0.166 C 
HETATM   10  C   UNK N   1     150.191 159.563 152.974  0.00  0.00     0.006 A 
HETATM   11  C   UNK N   1     149.111 155.801 152.306  0.00  0.00     0.002 C 
HETATM   12  C   UNK N   1     151.428 160.230 152.948  0.00  0.00    -0.018 A 
HETATM   13  C   UNK N   1     151.352 157.626 153.782  0.00  0.00     0.273 C 
HETATM   14  C   UNK N   1     152.104 155.471 151.536  0.00  0.00     0.015 C 
HETATM   15  C   UNK N   1     151.522 156.428 149.303  0.00  0.00     0.015 C 
HETATM   16  C   UNK N   1     149.008 160.307 153.201  0.00  0.00     0.107 A 
HETATM   17  C   UNK N   1     151.517 161.607 153.132  0.00  0.00     0.021 A 
HETATM   18  C   UNK N   1     150.349 162.368 153.327  0.00  0.00    -0.016 A 
HETATM   19  C   UNK N   1     149.089 161.720 153.354  0.00  0.00     0.106 A 
ENDROOT
BRANCH  18  20
HETATM   20  C   UNK N   1     150.443 163.880 153.515  0.00  0.00     0.041 C 
HETATM   21  C   UNK N   1     151.733 164.431 152.895  0.00  0.00     0.017 C 
BRANCH  20  22
HETATM   22  C   UNK N   1     150.330 164.263 154.999  0.00  0.00     0.173 C 
BRANCH  22  23
HETATM   23  O   UNK N   1     149.034 164.724 155.268  0.00  0.00    -0.400 OA
HETATM   24  H   UNK N   1     149.082 165.715 155.251  0.00  0.00     0.209 HD
ENDBRANCH  22  23
ENDBRANCH  20  22
ENDBRANCH  18  20
BRANCH  19  25
HETATM   25  O   UNK N   1     147.977 162.476 153.518  0.00  0.00    -0.357 OA
HETATM   26  H   UNK N   1     147.893 163.396 153.244  0.00  0.00     0.218 HD
ENDBRANCH  19  25
BRANCH  16  27
HETATM   27  O   UNK N   1     147.819 159.668 153.284  0.00  0.00    -0.357 OA
HETATM   28  H   UNK N   1     147.641 158.901 153.838  0.00  0.00     0.218 HD
ENDBRANCH  16  27
TORSDOF 5
ENDMDL
