MODEL 1
REMARK VINA RESULT:      -7.8      0.000      0.000
REMARK  3 active torsions:
REMARK  status: ('A' for Active; 'I' for Inactive)
REMARK    1  A    between atoms: O_3  and  C_18 
REMARK    2  A    between atoms: O_4  and  C_21 
REMARK    3  A    between atoms: C_20  and  C_22 
ROOT
HETATM    1  O   UNK N   1     154.790 158.538 154.284  0.00  0.00    -0.310 OA
HETATM    2  O   UNK N   1     155.506 156.445 153.833  0.00  0.00    -0.264 OA
HETATM    3  C   UNK N   1     153.389 158.243 151.869  0.00  0.00     0.019 C 
HETATM    4  C   UNK N   1     153.343 157.087 152.944  0.00  0.00     0.083 C 
HETATM    5  C   UNK N   1     152.294 158.165 150.744  0.00  0.00    -0.043 C 
HETATM    6  C   UNK N   1     153.513 159.645 152.593  0.00  0.00     0.044 C 
HETATM    7  C   UNK N   1     153.281 155.707 152.237  0.00  0.00     0.025 C 
HETATM    8  C   UNK N   1     152.328 156.734 150.134  0.00  0.00     0.009 C 
HETATM    9  C   UNK N   1     153.726 159.426 154.116  0.00  0.00     0.166 C 
HETATM   10  C   UNK N   1     152.275 157.432 154.010  0.00  0.00     0.006 A 
HETATM   11  C   UNK N   1     152.151 155.632 151.191  0.00  0.00     0.002 C 
HETATM   12  C   UNK N   1     152.486 158.690 154.608  0.00  0.00    -0.018 A 
HETATM   13  C   UNK N   1     154.643 157.300 153.721  0.00  0.00     0.273 C 
HETATM   14  C   UNK N   1     150.861 158.487 151.246  0.00  0.00     0.015 C 
HETATM   15  C   UNK N   1     152.635 159.170 149.620  0.00  0.00     0.015 C 
HETATM   16  C   UNK N   1     151.212 156.618 154.463  0.00  0.00     0.107 A 
HETATM   17  C   UNK N   1     151.643 159.167 155.609  0.00  0.00     0.021 A 
HETATM   18  C   UNK N   1     150.553 158.389 156.043  0.00  0.00    -0.018 A 
HETATM   19  C   UNK N   1     150.332 157.112 155.465  0.00  0.00     0.106 A 
ENDROOT
BRANCH  18  20
HETATM   20  C   UNK N   1     149.630 158.905 157.142  0.00  0.00     0.013 C 
HETATM   21  C   UNK N   1     149.661 160.435 157.218  0.00  0.00     0.015 C 
HETATM   22  C   UNK N   1     149.984 158.276 158.498  0.00  0.00     0.015 C 
ENDBRANCH  18  20
BRANCH  19  23
HETATM   23  O   UNK N   1     149.272 156.385 155.891  0.00  0.00    -0.357 OA
HETATM   24  H   UNK N   1     148.358 156.689 155.888  0.00  0.00     0.218 HD
ENDBRANCH  19  23
BRANCH  16  25
HETATM   25  O   UNK N   1     151.066 155.372 153.964  0.00  0.00    -0.357 OA
HETATM   26  H   UNK N   1     151.399 154.569 154.377  0.00  0.00     0.218 HD
ENDBRANCH  16  25
TORSDOF 3
ENDMDL
MODEL 2
REMARK VINA RESULT:      -6.9      2.105      3.189
REMARK  3 active torsions:
REMARK  status: ('A' for Active; 'I' for Inactive)
REMARK    1  A    between atoms: O_3  and  C_18 
REMARK    2  A    between atoms: O_4  and  C_21 
REMARK    3  A    between atoms: C_20  and  C_22 
ROOT
HETATM    1  O   UNK N   1     150.350 160.758 152.987  0.00  0.00    -0.310 OA
HETATM    2  O   UNK N   1     152.545 161.267 152.837  0.00  0.00    -0.264 OA
HETATM    3  C   UNK N   1     151.197 158.227 152.118  0.00  0.00     0.019 C 
HETATM    4  C   UNK N   1     151.976 158.952 153.285  0.00  0.00     0.083 C 
HETATM    5  C   UNK N   1     151.491 156.691 151.961  0.00  0.00    -0.043 C 
HETATM    6  C   UNK N   1     149.665 158.618 152.170  0.00  0.00     0.044 C 
HETATM    7  C   UNK N   1     153.489 158.618 153.202  0.00  0.00     0.025 C 
HETATM    8  C   UNK N   1     153.033 156.495 151.907  0.00  0.00     0.009 C 
HETATM    9  C   UNK N   1     149.447 159.724 153.240  0.00  0.00     0.166 C 
HETATM   10  C   UNK N   1     151.226 158.710 154.617  0.00  0.00     0.006 A 
HETATM   11  C   UNK N   1     153.752 157.100 153.124  0.00  0.00     0.002 C 
HETATM   12  C   UNK N   1     149.876 159.109 154.566  0.00  0.00    -0.018 A 
HETATM   13  C   UNK N   1     151.677 160.429 153.020  0.00  0.00     0.273 C 
HETATM   14  C   UNK N   1     150.891 155.823 153.099  0.00  0.00     0.015 C 
HETATM   15  C   UNK N   1     150.900 156.186 150.624  0.00  0.00     0.015 C 
HETATM   16  C   UNK N   1     151.759 158.220 155.831  0.00  0.00     0.107 A 
HETATM   17  C   UNK N   1     149.043 158.993 155.677  0.00  0.00     0.021 A 
HETATM   18  C   UNK N   1     149.545 158.467 156.882  0.00  0.00    -0.018 A 
HETATM   19  C   UNK N   1     150.905 158.073 156.960  0.00  0.00     0.106 A 
ENDROOT
BRANCH  18  20
HETATM   20  C   UNK N   1     148.638 158.343 158.102  0.00  0.00     0.013 C 
HETATM   21  C   UNK N   1     147.228 157.898 157.700  0.00  0.00     0.015 C 
HETATM   22  C   UNK N   1     148.599 159.657 158.894  0.00  0.00     0.015 C 
ENDBRANCH  18  20
BRANCH  19  23
HETATM   23  O   UNK N   1     151.364 157.561 158.127  0.00  0.00    -0.357 OA
HETATM   24  H   UNK N   1     151.804 158.071 158.817  0.00  0.00     0.218 HD
ENDBRANCH  19  23
BRANCH  16  25
HETATM   25  O   UNK N   1     153.075 157.930 155.914  0.00  0.00    -0.357 OA
HETATM   26  H   UNK N   1     153.785 158.580 155.919  0.00  0.00     0.218 HD
ENDBRANCH  16  25
TORSDOF 3
ENDMDL
MODEL 3
REMARK VINA RESULT:      -6.8      2.839      4.412
REMARK  3 active torsions:
REMARK  status: ('A' for Active; 'I' for Inactive)
REMARK    1  A    between atoms: O_3  and  C_18 
REMARK    2  A    between atoms: O_4  and  C_21 
REMARK    3  A    between atoms: C_20  and  C_22 
ROOT
HETATM    1  O   UNK N   1     153.979 159.097 153.443  0.00  0.00    -0.310 OA
HETATM    2  O   UNK N   1     154.687 158.313 155.438  0.00  0.00    -0.264 OA
HETATM    3  C   UNK N   1     151.807 157.375 153.890  0.00  0.00     0.019 C 
HETATM    4  C   UNK N   1     152.293 158.334 155.047  0.00  0.00     0.083 C 
HETATM    5  C   UNK N   1     150.382 156.742 154.090  0.00  0.00    -0.043 C 
HETATM    6  C   UNK N   1     152.047 158.064 152.485  0.00  0.00     0.044 C 
HETATM    7  C   UNK N   1     152.114 157.638 156.423  0.00  0.00     0.025 C 
HETATM    8  C   UNK N   1     150.333 156.098 155.505  0.00  0.00     0.009 C 
HETATM    9  C   UNK N   1     152.843 159.384 152.683  0.00  0.00     0.166 C 
HETATM   10  C   UNK N   1     151.679 159.737 154.830  0.00  0.00     0.006 A 
HETATM   11  C   UNK N   1     150.687 157.091 156.623  0.00  0.00     0.002 C 
HETATM   12  C   UNK N   1     151.967 160.270 153.559  0.00  0.00    -0.018 A 
HETATM   13  C   UNK N   1     153.761 158.573 154.688  0.00  0.00     0.273 C 
HETATM   14  C   UNK N   1     149.221 157.761 153.936  0.00  0.00     0.015 C 
HETATM   15  C   UNK N   1     150.165 155.620 153.048  0.00  0.00     0.015 C 
HETATM   16  C   UNK N   1     150.959 160.518 155.763  0.00  0.00     0.107 A 
HETATM   17  C   UNK N   1     151.521 161.536 153.185  0.00  0.00     0.021 A 
HETATM   18  C   UNK N   1     150.765 162.311 154.085  0.00  0.00    -0.018 A 
HETATM   19  C   UNK N   1     150.477 161.800 155.377  0.00  0.00     0.106 A 
ENDROOT
BRANCH  18  20
HETATM   20  C   UNK N   1     150.279 163.699 153.682  0.00  0.00     0.013 C 
HETATM   21  C   UNK N   1     149.067 163.612 152.750  0.00  0.00     0.015 C 
HETATM   22  C   UNK N   1     151.412 164.515 153.043  0.00  0.00     0.015 C 
ENDBRANCH  18  20
BRANCH  19  23
HETATM   23  O   UNK N   1     149.741 162.559 156.223  0.00  0.00    -0.357 OA
HETATM   24  H   UNK N   1     149.078 162.217 156.833  0.00  0.00     0.218 HD
ENDBRANCH  19  23
BRANCH  16  25
HETATM   25  O   UNK N   1     150.767 160.053 157.016  0.00  0.00    -0.357 OA
HETATM   26  H   UNK N   1     149.958 159.640 157.334  0.00  0.00     0.218 HD
ENDBRANCH  16  25
TORSDOF 3
ENDMDL
MODEL 4
REMARK VINA RESULT:      -6.8     29.480     33.997
REMARK  3 active torsions:
REMARK  status: ('A' for Active; 'I' for Inactive)
REMARK    1  A    between atoms: O_3  and  C_18 
REMARK    2  A    between atoms: O_4  and  C_21 
REMARK    3  A    between atoms: C_20  and  C_22 
ROOT
HETATM    1  O   UNK N   1     132.311 165.503 181.197  0.00  0.00    -0.310 OA
HETATM    2  O   UNK N   1     131.082 167.077 182.250  0.00  0.00    -0.264 OA
HETATM    3  C   UNK N   1     129.854 164.813 180.028  0.00  0.00     0.019 C 
HETATM    4  C   UNK N   1     130.293 166.329 180.082  0.00  0.00     0.083 C 
HETATM    5  C   UNK N   1     128.677 164.484 179.039  0.00  0.00    -0.043 C 
HETATM    6  C   UNK N   1     131.130 163.888 179.888  0.00  0.00     0.044 C 
HETATM    7  C   UNK N   1     129.050 167.236 180.278  0.00  0.00     0.025 C 
HETATM    8  C   UNK N   1     127.509 165.470 179.330  0.00  0.00     0.009 C 
HETATM    9  C   UNK N   1     132.415 164.751 180.025  0.00  0.00     0.166 C 
HETATM   10  C   UNK N   1     131.253 166.617 178.903  0.00  0.00     0.006 A 
HETATM   11  C   UNK N   1     127.940 166.944 179.248  0.00  0.00     0.002 C 
HETATM   12  C   UNK N   1     132.366 165.753 178.879  0.00  0.00    -0.018 A 
HETATM   13  C   UNK N   1     131.247 166.358 181.278  0.00  0.00     0.273 C 
HETATM   14  C   UNK N   1     129.079 164.575 177.542  0.00  0.00     0.015 C 
HETATM   15  C   UNK N   1     128.166 163.049 179.303  0.00  0.00     0.015 C 
HETATM   16  C   UNK N   1     131.159 167.652 177.946  0.00  0.00     0.107 A 
HETATM   17  C   UNK N   1     133.356 165.873 177.906  0.00  0.00     0.021 A 
HETATM   18  C   UNK N   1     133.256 166.871 176.919  0.00  0.00    -0.018 A 
HETATM   19  C   UNK N   1     132.152 167.761 176.933  0.00  0.00     0.106 A 
ENDROOT
BRANCH  18  20
HETATM   20  C   UNK N   1     134.340 167.008 175.854  0.00  0.00     0.013 C 
HETATM   21  C   UNK N   1     134.978 165.652 175.535  0.00  0.00     0.015 C 
HETATM   22  C   UNK N   1     135.402 168.032 176.279  0.00  0.00     0.015 C 
ENDBRANCH  18  20
BRANCH  19  23
HETATM   23  O   UNK N   1     132.073 168.708 175.968  0.00  0.00    -0.357 OA
HETATM   24  H   UNK N   1     131.255 169.117 175.664  0.00  0.00     0.218 HD
ENDBRANCH  19  23
BRANCH  16  25
HETATM   25  O   UNK N   1     130.148 168.544 178.024  0.00  0.00    -0.357 OA
HETATM   26  H   UNK N   1     130.007 169.274 177.413  0.00  0.00     0.218 HD
ENDBRANCH  16  25
TORSDOF 3
ENDMDL
MODEL 5
REMARK VINA RESULT:      -6.8     30.568     32.985
REMARK  3 active torsions:
REMARK  status: ('A' for Active; 'I' for Inactive)
REMARK    1  A    between atoms: O_3  and  C_18 
REMARK    2  A    between atoms: O_4  and  C_21 
REMARK    3  A    between atoms: C_20  and  C_22 
ROOT
HETATM    1  O   UNK N   1     131.903 166.756 175.687  0.00  0.00    -0.310 OA
HETATM    2  O   UNK N   1     131.515 164.533 175.743  0.00  0.00    -0.264 OA
HETATM    3  C   UNK N   1     130.359 166.769 178.031  0.00  0.00     0.019 C 
HETATM    4  C   UNK N   1     131.516 165.707 177.866  0.00  0.00     0.083 C 
HETATM    5  C   UNK N   1     129.813 166.952 179.494  0.00  0.00    -0.043 C 
HETATM    6  C   UNK N   1     130.747 168.109 177.285  0.00  0.00     0.044 C 
HETATM    7  C   UNK N   1     131.113 164.372 178.546  0.00  0.00     0.025 C 
HETATM    8  C   UNK N   1     129.465 165.545 180.061  0.00  0.00     0.009 C 
HETATM    9  C   UNK N   1     132.060 167.894 176.482  0.00  0.00     0.166 C 
HETATM   10  C   UNK N   1     132.863 166.366 178.246  0.00  0.00     0.006 A 
HETATM   11  C   UNK N   1     130.652 164.570 180.004  0.00  0.00     0.002 C 
HETATM   12  C   UNK N   1     133.125 167.540 177.513  0.00  0.00    -0.018 A 
HETATM   13  C   UNK N   1     131.643 165.586 176.346  0.00  0.00     0.273 C 
HETATM   14  C   UNK N   1     130.808 167.669 180.445  0.00  0.00     0.015 C 
HETATM   15  C   UNK N   1     128.512 167.787 179.459  0.00  0.00     0.015 C 
HETATM   16  C   UNK N   1     133.831 165.888 179.158  0.00  0.00     0.107 A 
HETATM   17  C   UNK N   1     134.301 168.262 177.696  0.00  0.00     0.021 A 
HETATM   18  C   UNK N   1     135.258 167.825 178.632  0.00  0.00    -0.018 A 
HETATM   19  C   UNK N   1     135.022 166.638 179.370  0.00  0.00     0.106 A 
ENDROOT
BRANCH  18  20
HETATM   20  C   UNK N   1     136.550 168.611 178.833  0.00  0.00     0.013 C 
HETATM   21  C   UNK N   1     136.386 169.678 179.919  0.00  0.00     0.015 C 
HETATM   22  C   UNK N   1     137.026 169.234 177.513  0.00  0.00     0.015 C 
ENDBRANCH  18  20
BRANCH  19  23
HETATM   23  O   UNK N   1     135.952 166.241 180.271  0.00  0.00    -0.357 OA
HETATM   24  H   UNK N   1     136.893 166.441 180.216  0.00  0.00     0.218 HD
ENDBRANCH  19  23
BRANCH  16  25
HETATM   25  O   UNK N   1     133.630 164.712 179.790  0.00  0.00    -0.357 OA
HETATM   26  H   UNK N   1     132.951 164.070 179.560  0.00  0.00     0.218 HD
ENDBRANCH  16  25
TORSDOF 3
ENDMDL
MODEL 6
REMARK VINA RESULT:      -6.7     38.962     41.848
REMARK  3 active torsions:
REMARK  status: ('A' for Active; 'I' for Inactive)
REMARK    1  A    between atoms: O_3  and  C_18 
REMARK    2  A    between atoms: O_4  and  C_21 
REMARK    3  A    between atoms: C_20  and  C_22 
ROOT
HETATM    1  O   UNK N   1     166.162 148.383 117.832  0.00  0.00    -0.310 OA
HETATM    2  O   UNK N   1     165.404 149.826 116.270  0.00  0.00    -0.264 OA
HETATM    3  C   UNK N   1     167.423 147.162 115.642  0.00  0.00     0.019 C 
HETATM    4  C   UNK N   1     167.520 148.727 115.824  0.00  0.00     0.083 C 
HETATM    5  C   UNK N   1     168.452 146.533 114.634  0.00  0.00    -0.043 C 
HETATM    6  C   UNK N   1     167.352 146.459 117.058  0.00  0.00     0.044 C 
HETATM    7  C   UNK N   1     167.530 149.424 114.437  0.00  0.00     0.025 C 
HETATM    8  C   UNK N   1     168.373 147.329 113.300  0.00  0.00     0.009 C 
HETATM    9  C   UNK N   1     167.223 147.539 118.168  0.00  0.00     0.166 C 
HETATM   10  C   UNK N   1     168.648 149.048 116.833  0.00  0.00     0.006 A 
HETATM   11  C   UNK N   1     168.599 148.837 113.493  0.00  0.00     0.002 C 
HETATM   12  C   UNK N   1     168.482 148.391 118.067  0.00  0.00    -0.018 A 
HETATM   13  C   UNK N   1     166.267 149.047 116.641  0.00  0.00     0.273 C 
HETATM   14  C   UNK N   1     169.914 146.531 115.157  0.00  0.00     0.015 C 
HETATM   15  C   UNK N   1     168.057 145.068 114.339  0.00  0.00     0.015 C 
HETATM   16  C   UNK N   1     169.728 149.945 116.664  0.00  0.00     0.107 A 
HETATM   17  C   UNK N   1     169.384 148.574 119.113  0.00  0.00     0.021 A 
HETATM   18  C   UNK N   1     170.490 149.430 118.949  0.00  0.00    -0.018 A 
HETATM   19  C   UNK N   1     170.668 150.114 117.719  0.00  0.00     0.106 A 
ENDROOT
BRANCH  18  20
HETATM   20  C   UNK N   1     171.477 149.636 120.093  0.00  0.00     0.013 C 
HETATM   21  C   UNK N   1     172.897 149.241 119.677  0.00  0.00     0.015 C 
HETATM   22  C   UNK N   1     171.033 148.870 121.347  0.00  0.00     0.015 C 
ENDBRANCH  18  20
BRANCH  19  23
HETATM   23  O   UNK N   1     171.743 150.925 117.580  0.00  0.00    -0.357 OA
HETATM   24  H   UNK N   1     171.716 151.887 117.622  0.00  0.00     0.218 HD
ENDBRANCH  19  23
BRANCH  16  25
HETATM   25  O   UNK N   1     169.835 150.653 115.520  0.00  0.00    -0.357 OA
HETATM   26  H   UNK N   1     170.584 151.209 115.282  0.00  0.00     0.218 HD
ENDBRANCH  16  25
TORSDOF 3
ENDMDL
MODEL 7
REMARK VINA RESULT:      -6.7     31.853     34.244
REMARK  3 active torsions:
REMARK  status: ('A' for Active; 'I' for Inactive)
REMARK    1  A    between atoms: O_3  and  C_18 
REMARK    2  A    between atoms: O_4  and  C_21 
REMARK    3  A    between atoms: C_20  and  C_22 
ROOT
HETATM    1  O   UNK N   1     162.427 123.323 151.738  0.00  0.00    -0.310 OA
HETATM    2  O   UNK N   1     162.872 125.014 150.311  0.00  0.00    -0.264 OA
HETATM    3  C   UNK N   1     162.817 125.292 153.701  0.00  0.00     0.019 C 
HETATM    4  C   UNK N   1     161.900 125.605 152.453  0.00  0.00     0.083 C 
HETATM    5  C   UNK N   1     162.674 126.284 154.911  0.00  0.00    -0.043 C 
HETATM    6  C   UNK N   1     162.714 123.757 154.072  0.00  0.00     0.044 C 
HETATM    7  C   UNK N   1     162.044 127.096 152.050  0.00  0.00     0.025 C 
HETATM    8  C   UNK N   1     162.820 127.735 154.369  0.00  0.00     0.009 C 
HETATM    9  C   UNK N   1     161.884 123.015 152.987  0.00  0.00     0.166 C 
HETATM   10  C   UNK N   1     160.487 125.030 152.710  0.00  0.00     0.006 A 
HETATM   11  C   UNK N   1     161.826 128.051 153.240  0.00  0.00     0.002 C 
HETATM   12  C   UNK N   1     160.502 123.654 153.011  0.00  0.00    -0.018 A 
HETATM   13  C   UNK N   1     162.442 124.646 151.391  0.00  0.00     0.273 C 
HETATM   14  C   UNK N   1     161.330 126.143 155.676  0.00  0.00     0.015 C 
HETATM   15  C   UNK N   1     163.817 126.035 155.922  0.00  0.00     0.015 C 
HETATM   16  C   UNK N   1     159.249 125.703 152.604  0.00  0.00     0.107 A 
HETATM   17  C   UNK N   1     159.323 122.951 153.249  0.00  0.00     0.021 A 
HETATM   18  C   UNK N   1     158.083 123.615 153.191  0.00  0.00    -0.018 A 
HETATM   19  C   UNK N   1     158.043 124.996 152.873  0.00  0.00     0.106 A 
ENDROOT
BRANCH  18  20
HETATM   20  C   UNK N   1     156.789 122.848 153.446  0.00  0.00     0.013 C 
HETATM   21  C   UNK N   1     156.418 122.866 154.932  0.00  0.00     0.015 C 
HETATM   22  C   UNK N   1     156.889 121.410 152.918  0.00  0.00     0.015 C 
ENDBRANCH  18  20
BRANCH  19  23
HETATM   23  O   UNK N   1     156.840 125.616 152.832  0.00  0.00    -0.357 OA
HETATM   24  H   UNK N   1     156.259 125.742 153.590  0.00  0.00     0.218 HD
ENDBRANCH  19  23
BRANCH  16  25
HETATM   25  O   UNK N   1     159.223 126.996 152.217  0.00  0.00    -0.357 OA
HETATM   26  H   UNK N   1     159.215 127.300 151.304  0.00  0.00     0.218 HD
ENDBRANCH  16  25
TORSDOF 3
ENDMDL
MODEL 8
REMARK VINA RESULT:      -6.6      3.030      4.083
REMARK  3 active torsions:
REMARK  status: ('A' for Active; 'I' for Inactive)
REMARK    1  A    between atoms: O_3  and  C_18 
REMARK    2  A    between atoms: O_4  and  C_21 
REMARK    3  A    between atoms: C_20  and  C_22 
ROOT
HETATM    1  O   UNK N   1     151.865 158.363 155.617  0.00  0.00    -0.310 OA
HETATM    2  O   UNK N   1     150.215 156.902 156.109  0.00  0.00    -0.264 OA
HETATM    3  C   UNK N   1     151.801 157.107 153.107  0.00  0.00     0.019 C 
HETATM    4  C   UNK N   1     150.450 157.560 153.787  0.00  0.00     0.083 C 
HETATM    5  C   UNK N   1     151.708 156.772 151.574  0.00  0.00    -0.043 C 
HETATM    6  C   UNK N   1     152.965 158.101 153.510  0.00  0.00     0.044 C 
HETATM    7  C   UNK N   1     149.319 156.555 153.441  0.00  0.00     0.025 C 
HETATM    8  C   UNK N   1     150.533 155.775 151.366  0.00  0.00     0.009 C 
HETATM    9  C   UNK N   1     152.447 159.099 154.583  0.00  0.00     0.166 C 
HETATM   10  C   UNK N   1     150.226 159.065 153.509  0.00  0.00     0.006 A 
HETATM   11  C   UNK N   1     149.201 156.300 151.925  0.00  0.00     0.002 C 
HETATM   12  C   UNK N   1     151.309 159.866 153.922  0.00  0.00    -0.018 A 
HETATM   13  C   UNK N   1     150.808 157.565 155.274  0.00  0.00     0.273 C 
HETATM   14  C   UNK N   1     151.502 158.021 150.675  0.00  0.00     0.015 C 
HETATM   15  C   UNK N   1     153.011 156.075 151.118  0.00  0.00     0.015 C 
HETATM   16  C   UNK N   1     149.071 159.683 152.975  0.00  0.00     0.107 A 
HETATM   17  C   UNK N   1     151.283 161.251 153.778  0.00  0.00     0.021 A 
HETATM   18  C   UNK N   1     150.159 161.880 153.209  0.00  0.00    -0.018 A 
HETATM   19  C   UNK N   1     149.051 161.095 152.800  0.00  0.00     0.106 A 
ENDROOT
BRANCH  18  20
HETATM   20  C   UNK N   1     150.125 163.397 153.054  0.00  0.00     0.013 C 
HETATM   21  C   UNK N   1     151.541 163.980 152.997  0.00  0.00     0.015 C 
HETATM   22  C   UNK N   1     149.304 164.046 154.177  0.00  0.00     0.015 C 
ENDBRANCH  18  20
BRANCH  19  23
HETATM   23  O   UNK N   1     147.985 161.720 152.247  0.00  0.00    -0.357 OA
HETATM   24  H   UNK N   1     147.080 161.656 152.571  0.00  0.00     0.218 HD
ENDBRANCH  19  23
BRANCH  16  25
HETATM   25  O   UNK N   1     147.992 158.931 152.671  0.00  0.00    -0.357 OA
HETATM   26  H   UNK N   1     147.863 158.459 151.842  0.00  0.00     0.218 HD
ENDBRANCH  16  25
TORSDOF 3
ENDMDL
MODEL 9
REMARK VINA RESULT:      -6.5     11.088     13.392
REMARK  3 active torsions:
REMARK  status: ('A' for Active; 'I' for Inactive)
REMARK    1  A    between atoms: O_3  and  C_18 
REMARK    2  A    between atoms: O_4  and  C_21 
REMARK    3  A    between atoms: C_20  and  C_22 
ROOT
HETATM    1  O   UNK N   1     154.541 169.578 155.787  0.00  0.00    -0.310 OA
HETATM    2  O   UNK N   1     152.342 169.562 155.274  0.00  0.00    -0.264 OA
HETATM    3  C   UNK N   1     154.721 167.704 153.704  0.00  0.00     0.019 C 
HETATM    4  C   UNK N   1     153.896 169.034 153.488  0.00  0.00     0.083 C 
HETATM    5  C   UNK N   1     155.083 166.913 152.395  0.00  0.00    -0.043 C 
HETATM    6  C   UNK N   1     155.933 167.977 154.684  0.00  0.00     0.044 C 
HETATM    7  C   UNK N   1     152.673 168.758 152.575  0.00  0.00     0.025 C 
HETATM    8  C   UNK N   1     153.779 166.720 151.569  0.00  0.00     0.009 C 
HETATM    9  C   UNK N   1     155.823 169.417 155.258  0.00  0.00     0.166 C 
HETATM   10  C   UNK N   1     154.871 170.175 153.112  0.00  0.00     0.006 A 
HETATM   11  C   UNK N   1     153.066 168.047 151.264  0.00  0.00     0.002 C 
HETATM   12  C   UNK N   1     155.900 170.350 154.057  0.00  0.00    -0.018 A 
HETATM   13  C   UNK N   1     153.499 169.417 154.915  0.00  0.00     0.273 C 
HETATM   14  C   UNK N   1     156.159 167.614 151.522  0.00  0.00     0.015 C 
HETATM   15  C   UNK N   1     155.622 165.513 152.770  0.00  0.00     0.015 C 
HETATM   16  C   UNK N   1     154.786 171.055 152.008  0.00  0.00     0.107 A 
HETATM   17  C   UNK N   1     156.862 171.346 153.905  0.00  0.00     0.021 A 
HETATM   18  C   UNK N   1     156.819 172.204 152.790  0.00  0.00    -0.018 A 
HETATM   19  C   UNK N   1     155.782 172.056 151.834  0.00  0.00     0.106 A 
ENDROOT
BRANCH  18  20
HETATM   20  C   UNK N   1     157.868 173.299 152.622  0.00  0.00     0.013 C 
HETATM   21  C   UNK N   1     159.207 172.882 153.238  0.00  0.00     0.015 C 
HETATM   22  C   UNK N   1     157.375 174.627 153.215  0.00  0.00     0.015 C 
ENDBRANCH  18  20
BRANCH  19  23
HETATM   23  O   UNK N   1     155.765 172.886 150.764  0.00  0.00    -0.357 OA
HETATM   24  H   UNK N   1     155.867 172.605 149.848  0.00  0.00     0.218 HD
ENDBRANCH  19  23
BRANCH  16  25
HETATM   25  O   UNK N   1     153.745 170.956 151.154  0.00  0.00    -0.357 OA
HETATM   26  H   UNK N   1     153.477 170.151 150.700  0.00  0.00     0.218 HD
ENDBRANCH  16  25
TORSDOF 3
ENDMDL
