MODEL 1
REMARK VINA RESULT:      -7.1      0.000      0.000
REMARK  4 active torsions:
REMARK  status: ('A' for Active; 'I' for Inactive)
REMARK    1  A    between atoms: O_2  and  C_14 
REMARK    2  A    between atoms: O_4  and  C_19 
REMARK    3  A    between atoms: O_5  and  C_22 
REMARK    4  A    between atoms: C_21  and  C_23 
ROOT
HETATM    1  O   UNK N   1     136.714 139.474 153.474  0.00  0.00    -0.312 OA
HETATM    2  O   UNK N   1     138.184 138.995 151.842  0.00  0.00    -0.264 OA
HETATM    3  C   UNK N   1     135.826 141.416 152.638  0.00  0.00     0.049 C 
HETATM    4  C   UNK N   1     136.466 140.619 151.453  0.00  0.00     0.085 C 
HETATM    5  C   UNK N   1     136.766 142.530 153.290  0.00  0.00    -0.040 C 
HETATM    6  C   UNK N   1     135.572 140.244 153.618  0.00  0.00     0.171 C 
HETATM    7  C   UNK N   1     137.225 141.569 150.479  0.00  0.00     0.025 C 
HETATM    8  C   UNK N   1     137.310 143.432 152.157  0.00  0.00     0.009 C 
HETATM    9  C   UNK N   1     135.372 139.722 150.797  0.00  0.00     0.006 A 
HETATM   10  C   UNK N   1     138.115 142.616 151.142  0.00  0.00     0.002 C 
HETATM   11  C   UNK N   1     134.345 139.423 153.145  0.00  0.00     0.184 C 
HETATM   12  C   UNK N   1     137.277 139.689 152.275  0.00  0.00     0.273 C 
HETATM   13  C   UNK N   1     134.371 139.155 151.639  0.00  0.00    -0.016 A 
HETATM   14  C   UNK N   1     135.921 143.411 154.241  0.00  0.00     0.015 C 
HETATM   15  C   UNK N   1     137.963 141.998 154.141  0.00  0.00     0.015 C 
HETATM   16  C   UNK N   1     135.332 139.423 149.405  0.00  0.00     0.107 A 
HETATM   17  C   UNK N   1     133.355 138.360 151.084  0.00  0.00     0.021 A 
HETATM   18  C   UNK N   1     133.309 138.067 149.710  0.00  0.00    -0.018 A 
HETATM   19  C   UNK N   1     134.326 138.596 148.867  0.00  0.00     0.106 A 
ENDROOT
BRANCH  18  20
HETATM   20  C   UNK N   1     132.167 137.196 149.171  0.00  0.00     0.013 C 
HETATM   21  C   UNK N   1     131.793 136.098 150.173  0.00  0.00     0.015 C 
HETATM   22  C   UNK N   1     130.946 138.048 148.800  0.00  0.00     0.015 C 
ENDBRANCH  18  20
BRANCH  19  23
HETATM   23  O   UNK N   1     134.383 138.328 147.541  0.00  0.00    -0.357 OA
HETATM   24  H   UNK N   1     134.363 138.968 146.823  0.00  0.00     0.218 HD
ENDBRANCH  19  23
BRANCH  16  25
HETATM   25  O   UNK N   1     136.275 139.915 148.573  0.00  0.00    -0.357 OA
HETATM   26  H   UNK N   1     136.076 140.331 147.724  0.00  0.00     0.218 HD
ENDBRANCH  16  25
BRANCH  11  27
HETATM   27  O   UNK N   1     134.299 138.180 153.833  0.00  0.00    -0.383 OA
HETATM   28  C   UNK N   1     133.189 138.117 154.706  0.00  0.00     0.202 C 
ENDBRANCH  11  27
TORSDOF 4
ENDMDL
MODEL 2
REMARK VINA RESULT:      -7.1     29.876     32.183
REMARK  4 active torsions:
REMARK  status: ('A' for Active; 'I' for Inactive)
REMARK    1  A    between atoms: O_2  and  C_14 
REMARK    2  A    between atoms: O_4  and  C_19 
REMARK    3  A    between atoms: O_5  and  C_22 
REMARK    4  A    between atoms: C_21  and  C_23 
ROOT
HETATM    1  O   UNK N   1     137.886 149.915 121.393  0.00  0.00    -0.312 OA
HETATM    2  O   UNK N   1     136.597 148.925 122.945  0.00  0.00    -0.264 OA
HETATM    3  C   UNK N   1     139.630 148.428 121.331  0.00  0.00     0.049 C 
HETATM    4  C   UNK N   1     138.381 147.694 121.923  0.00  0.00     0.085 C 
HETATM    5  C   UNK N   1     140.635 149.033 122.414  0.00  0.00    -0.040 C 
HETATM    6  C   UNK N   1     138.910 149.545 120.538  0.00  0.00     0.171 C 
HETATM    7  C   UNK N   1     138.779 146.776 123.117  0.00  0.00     0.025 C 
HETATM    8  C   UNK N   1     140.991 147.919 123.426  0.00  0.00     0.009 C 
HETATM    9  C   UNK N   1     137.611 146.990 120.765  0.00  0.00     0.006 A 
HETATM   10  C   UNK N   1     139.737 147.395 124.131  0.00  0.00     0.002 C 
HETATM   11  C   UNK N   1     138.298 148.956 119.241  0.00  0.00     0.184 C 
HETATM   12  C   UNK N   1     137.583 148.907 122.226  0.00  0.00     0.273 C 
HETATM   13  C   UNK N   1     137.583 147.626 119.488  0.00  0.00    -0.016 A 
HETATM   14  C   UNK N   1     141.938 149.472 121.704  0.00  0.00     0.015 C 
HETATM   15  C   UNK N   1     140.123 150.287 123.192  0.00  0.00     0.015 C 
HETATM   16  C   UNK N   1     136.918 145.755 120.919  0.00  0.00     0.107 A 
HETATM   17  C   UNK N   1     136.920 147.013 118.414  0.00  0.00     0.021 A 
HETATM   18  C   UNK N   1     136.240 145.791 118.560  0.00  0.00    -0.018 A 
HETATM   19  C   UNK N   1     136.229 145.168 119.839  0.00  0.00     0.106 A 
ENDROOT
BRANCH  18  20
HETATM   20  C   UNK N   1     135.541 145.176 117.341  0.00  0.00     0.013 C 
HETATM   21  C   UNK N   1     134.115 145.718 117.192  0.00  0.00     0.015 C 
HETATM   22  C   UNK N   1     136.356 145.402 116.061  0.00  0.00     0.015 C 
ENDBRANCH  18  20
BRANCH  19  23
HETATM   23  O   UNK N   1     135.561 144.014 120.080  0.00  0.00    -0.357 OA
HETATM   24  H   UNK N   1     135.888 143.252 120.566  0.00  0.00     0.218 HD
ENDBRANCH  19  23
BRANCH  16  25
HETATM   25  O   UNK N   1     136.893 145.129 122.116  0.00  0.00    -0.357 OA
HETATM   26  H   UNK N   1     136.371 144.336 122.294  0.00  0.00     0.218 HD
ENDBRANCH  16  25
BRANCH  11  27
HETATM   27  O   UNK N   1     137.374 149.877 118.678  0.00  0.00    -0.383 OA
HETATM   28  C   UNK N   1     138.029 150.828 117.862  0.00  0.00     0.202 C 
ENDBRANCH  11  27
TORSDOF 4
ENDMDL
MODEL 3
REMARK VINA RESULT:      -7.0     19.702     22.685
REMARK  4 active torsions:
REMARK  status: ('A' for Active; 'I' for Inactive)
REMARK    1  A    between atoms: O_2  and  C_14 
REMARK    2  A    between atoms: O_4  and  C_19 
REMARK    3  A    between atoms: O_5  and  C_22 
REMARK    4  A    between atoms: C_21  and  C_23 
ROOT
HETATM    1  O   UNK N   1     150.020 155.998 153.108  0.00  0.00    -0.312 OA
HETATM    2  O   UNK N   1     151.910 155.008 153.812  0.00  0.00    -0.264 OA
HETATM    3  C   UNK N   1     150.912 157.615 151.749  0.00  0.00     0.049 C 
HETATM    4  C   UNK N   1     151.974 156.478 151.922  0.00  0.00     0.085 C 
HETATM    5  C   UNK N   1     151.074 158.851 152.746  0.00  0.00    -0.040 C 
HETATM    6  C   UNK N   1     149.629 156.805 152.052  0.00  0.00     0.171 C 
HETATM    7  C   UNK N   1     153.406 157.067 152.100  0.00  0.00     0.025 C 
HETATM    8  C   UNK N   1     152.536 159.350 152.671  0.00  0.00     0.009 C 
HETATM    9  C   UNK N   1     151.811 155.452 150.760  0.00  0.00     0.006 A 
HETATM   10  C   UNK N   1     153.517 158.243 153.066  0.00  0.00     0.002 C 
HETATM   11  C   UNK N   1     149.273 155.910 150.837  0.00  0.00     0.184 C 
HETATM   12  C   UNK N   1     151.350 155.823 153.097  0.00  0.00     0.273 C 
HETATM   13  C   UNK N   1     150.499 155.195 150.265  0.00  0.00    -0.016 A 
HETATM   14  C   UNK N   1     150.149 160.000 152.282  0.00  0.00     0.015 C 
HETATM   15  C   UNK N   1     150.704 158.573 154.238  0.00  0.00     0.015 C 
HETATM   16  C   UNK N   1     152.903 154.745 150.179  0.00  0.00     0.107 A 
HETATM   17  C   UNK N   1     150.313 154.294 149.204  0.00  0.00     0.021 A 
HETATM   18  C   UNK N   1     151.388 153.598 148.624  0.00  0.00    -0.018 A 
HETATM   19  C   UNK N   1     152.697 153.819 149.137  0.00  0.00     0.106 A 
ENDROOT
BRANCH  18  20
HETATM   20  C   UNK N   1     151.112 152.633 147.464  0.00  0.00     0.013 C 
HETATM   21  C   UNK N   1     150.307 151.419 147.938  0.00  0.00     0.015 C 
HETATM   22  C   UNK N   1     150.407 153.347 146.303  0.00  0.00     0.015 C 
ENDBRANCH  18  20
BRANCH  19  23
HETATM   23  O   UNK N   1     153.782 153.157 148.667  0.00  0.00    -0.357 OA
HETATM   24  H   UNK N   1     154.700 153.319 148.904  0.00  0.00     0.218 HD
ENDBRANCH  19  23
BRANCH  16  25
HETATM   25  O   UNK N   1     154.161 154.934 150.632  0.00  0.00    -0.357 OA
HETATM   26  H   UNK N   1     154.488 154.577 151.468  0.00  0.00     0.218 HD
ENDBRANCH  16  25
BRANCH  11  27
HETATM   27  O   UNK N   1     148.308 154.937 151.216  0.00  0.00    -0.383 OA
HETATM   28  C   UNK N   1     147.003 155.342 150.856  0.00  0.00     0.202 C 
ENDBRANCH  11  27
TORSDOF 4
ENDMDL
MODEL 4
REMARK VINA RESULT:      -6.8     21.117     24.864
REMARK  4 active torsions:
REMARK  status: ('A' for Active; 'I' for Inactive)
REMARK    1  A    between atoms: O_2  and  C_14 
REMARK    2  A    between atoms: O_4  and  C_19 
REMARK    3  A    between atoms: O_5  and  C_22 
REMARK    4  A    between atoms: C_21  and  C_23 
ROOT
HETATM    1  O   UNK N   1     149.599 157.763 153.128  0.00  0.00    -0.312 OA
HETATM    2  O   UNK N   1     149.242 159.974 152.930  0.00  0.00    -0.264 OA
HETATM    3  C   UNK N   1     151.710 157.789 154.020  0.00  0.00     0.049 C 
HETATM    4  C   UNK N   1     151.045 159.180 154.293  0.00  0.00     0.085 C 
HETATM    5  C   UNK N   1     152.634 157.724 152.719  0.00  0.00    -0.040 C 
HETATM    6  C   UNK N   1     150.433 156.931 153.853  0.00  0.00     0.171 C 
HETATM    7  C   UNK N   1     152.061 160.342 154.082  0.00  0.00     0.025 C 
HETATM    8  C   UNK N   1     153.643 158.895 152.779  0.00  0.00     0.009 C 
HETATM    9  C   UNK N   1     150.350 159.143 155.688  0.00  0.00     0.006 A 
HETATM   10  C   UNK N   1     152.920 160.244 152.825  0.00  0.00     0.002 C 
HETATM   11  C   UNK N   1     149.797 156.662 155.241  0.00  0.00     0.184 C 
HETATM   12  C   UNK N   1     149.939 159.048 153.314  0.00  0.00     0.273 C 
HETATM   13  C   UNK N   1     149.752 157.919 156.112  0.00  0.00    -0.016 A 
HETATM   14  C   UNK N   1     153.433 156.400 152.731  0.00  0.00     0.015 C 
HETATM   15  C   UNK N   1     151.883 157.765 151.350  0.00  0.00     0.015 C 
HETATM   16  C   UNK N   1     150.264 160.271 156.552  0.00  0.00     0.107 A 
HETATM   17  C   UNK N   1     149.136 157.839 157.371  0.00  0.00     0.021 A 
HETATM   18  C   UNK N   1     149.053 158.950 158.229  0.00  0.00    -0.018 A 
HETATM   19  C   UNK N   1     149.613 160.185 157.799  0.00  0.00     0.106 A 
ENDROOT
BRANCH  18  20
HETATM   20  C   UNK N   1     148.370 158.788 159.594  0.00  0.00     0.013 C 
HETATM   21  C   UNK N   1     147.049 158.023 159.460  0.00  0.00     0.015 C 
HETATM   22  C   UNK N   1     149.304 158.110 160.606  0.00  0.00     0.015 C 
ENDBRANCH  18  20
BRANCH  19  23
HETATM   23  O   UNK N   1     149.538 161.314 158.543  0.00  0.00    -0.357 OA
HETATM   24  H   UNK N   1     149.216 161.387 159.447  0.00  0.00     0.218 HD
ENDBRANCH  19  23
BRANCH  16  25
HETATM   25  O   UNK N   1     150.791 161.459 156.182  0.00  0.00    -0.357 OA
HETATM   26  H   UNK N   1     151.379 161.571 155.424  0.00  0.00     0.218 HD
ENDBRANCH  16  25
BRANCH  11  27
HETATM   27  O   UNK N   1     148.475 156.166 155.081  0.00  0.00    -0.383 OA
HETATM   28  C   UNK N   1     148.470 154.762 154.917  0.00  0.00     0.202 C 
ENDBRANCH  11  27
TORSDOF 4
ENDMDL
MODEL 5
REMARK VINA RESULT:      -6.7     38.014     39.611
REMARK  4 active torsions:
REMARK  status: ('A' for Active; 'I' for Inactive)
REMARK    1  A    between atoms: O_2  and  C_14 
REMARK    2  A    between atoms: O_4  and  C_19 
REMARK    3  A    between atoms: O_5  and  C_22 
REMARK    4  A    between atoms: C_21  and  C_23 
ROOT
HETATM    1  O   UNK N   1     135.693 166.793 180.335  0.00  0.00    -0.312 OA
HETATM    2  O   UNK N   1     135.980 166.063 178.229  0.00  0.00    -0.264 OA
HETATM    3  C   UNK N   1     135.537 169.047 179.946  0.00  0.00     0.049 C 
HETATM    4  C   UNK N   1     135.202 168.296 178.615  0.00  0.00     0.085 C 
HETATM    5  C   UNK N   1     137.054 169.526 180.089  0.00  0.00    -0.040 C 
HETATM    6  C   UNK N   1     135.198 167.926 180.958  0.00  0.00     0.171 C 
HETATM    7  C   UNK N   1     135.842 169.009 177.387  0.00  0.00     0.025 C 
HETATM    8  C   UNK N   1     137.438 170.315 178.816  0.00  0.00     0.009 C 
HETATM    9  C   UNK N   1     133.660 168.076 178.533  0.00  0.00     0.006 A 
HETATM   10  C   UNK N   1     137.294 169.446 177.564  0.00  0.00     0.002 C 
HETATM   11  C   UNK N   1     133.659 167.795 181.098  0.00  0.00     0.184 C 
HETATM   12  C   UNK N   1     135.753 166.976 179.006  0.00  0.00     0.273 C 
HETATM   13  C   UNK N   1     132.948 167.829 179.744  0.00  0.00    -0.016 A 
HETATM   14  C   UNK N   1     137.171 170.481 181.301  0.00  0.00     0.015 C 
HETATM   15  C   UNK N   1     138.104 168.394 180.327  0.00  0.00     0.015 C 
HETATM   16  C   UNK N   1     132.930 168.089 177.310  0.00  0.00     0.107 A 
HETATM   17  C   UNK N   1     131.556 167.649 179.714  0.00  0.00     0.021 A 
HETATM   18  C   UNK N   1     130.830 167.666 178.510  0.00  0.00    -0.018 A 
HETATM   19  C   UNK N   1     131.537 167.873 177.293  0.00  0.00     0.106 A 
ENDROOT
BRANCH  18  20
HETATM   20  C   UNK N   1     129.310 167.467 178.553  0.00  0.00     0.013 C 
HETATM   21  C   UNK N   1     128.935 166.019 178.220  0.00  0.00     0.015 C 
HETATM   22  C   UNK N   1     128.732 167.892 179.911  0.00  0.00     0.015 C 
ENDBRANCH  18  20
BRANCH  19  23
HETATM   23  O   UNK N   1     130.923 167.860 176.085  0.00  0.00    -0.357 OA
HETATM   24  H   UNK N   1     131.126 168.423 175.332  0.00  0.00     0.218 HD
ENDBRANCH  19  23
BRANCH  16  25
HETATM   25  O   UNK N   1     133.564 168.291 176.135  0.00  0.00    -0.357 OA
HETATM   26  H   UNK N   1     134.444 168.684 176.062  0.00  0.00     0.218 HD
ENDBRANCH  16  25
BRANCH  11  27
HETATM   27  O   UNK N   1     133.334 166.578 181.757  0.00  0.00    -0.383 OA
HETATM   28  C   UNK N   1     133.479 166.699 183.158  0.00  0.00     0.202 C 
ENDBRANCH  11  27
TORSDOF 4
ENDMDL
MODEL 6
REMARK VINA RESULT:      -6.7     34.068     36.664
REMARK  4 active torsions:
REMARK  status: ('A' for Active; 'I' for Inactive)
REMARK    1  A    between atoms: O_2  and  C_14 
REMARK    2  A    between atoms: O_4  and  C_19 
REMARK    3  A    between atoms: O_5  and  C_22 
REMARK    4  A    between atoms: C_21  and  C_23 
ROOT
HETATM    1  O   UNK N   1     167.878 153.736 139.207  0.00  0.00    -0.312 OA
HETATM    2  O   UNK N   1     168.619 153.516 141.318  0.00  0.00    -0.264 OA
HETATM    3  C   UNK N   1     165.673 153.188 139.512  0.00  0.00     0.049 C 
HETATM    4  C   UNK N   1     166.264 153.628 140.893  0.00  0.00     0.085 C 
HETATM    5  C   UNK N   1     165.670 151.614 139.247  0.00  0.00    -0.040 C 
HETATM    6  C   UNK N   1     166.661 153.920 138.573  0.00  0.00     0.171 C 
HETATM    7  C   UNK N   1     165.750 152.712 142.044  0.00  0.00     0.025 C 
HETATM    8  C   UNK N   1     165.006 150.916 140.458  0.00  0.00     0.009 C 
HETATM    9  C   UNK N   1     166.014 155.154 141.087  0.00  0.00     0.006 A 
HETATM   10  C   UNK N   1     165.769 151.215 141.751  0.00  0.00     0.002 C 
HETATM   11  C   UNK N   1     166.332 155.435 138.542  0.00  0.00     0.184 C 
HETATM   12  C   UNK N   1     167.695 153.523 140.520  0.00  0.00     0.273 C 
HETATM   13  C   UNK N   1     166.061 155.998 139.939  0.00  0.00    -0.016 A 
HETATM   14  C   UNK N   1     164.817 151.313 137.992  0.00  0.00     0.015 C 
HETATM   15  C   UNK N   1     167.067 150.966 138.986  0.00  0.00     0.015 C 
HETATM   16  C   UNK N   1     165.759 155.752 142.355  0.00  0.00     0.107 A 
HETATM   17  C   UNK N   1     165.818 157.375 140.069  0.00  0.00     0.021 A 
HETATM   18  C   UNK N   1     165.561 157.968 141.318  0.00  0.00    -0.018 A 
HETATM   19  C   UNK N   1     165.551 157.141 142.475  0.00  0.00     0.106 A 
ENDROOT
BRANCH  18  20
HETATM   20  C   UNK N   1     165.299 159.478 141.385  0.00  0.00     0.013 C 
HETATM   21  C   UNK N   1     166.615 160.264 141.422  0.00  0.00     0.015 C 
HETATM   22  C   UNK N   1     164.410 159.940 140.223  0.00  0.00     0.015 C 
ENDBRANCH  18  20
BRANCH  19  23
HETATM   23  O   UNK N   1     165.357 157.637 143.721  0.00  0.00    -0.357 OA
HETATM   24  H   UNK N   1     164.521 157.692 144.193  0.00  0.00     0.218 HD
ENDBRANCH  19  23
BRANCH  16  25
HETATM   25  O   UNK N   1     165.733 154.998 143.475  0.00  0.00    -0.357 OA
HETATM   26  H   UNK N   1     164.935 154.840 143.996  0.00  0.00     0.218 HD
ENDBRANCH  16  25
BRANCH  11  27
HETATM   27  O   UNK N   1     167.408 156.154 137.957  0.00  0.00    -0.383 OA
HETATM   28  C   UNK N   1     167.044 156.693 136.702  0.00  0.00     0.202 C 
ENDBRANCH  11  27
TORSDOF 4
ENDMDL
MODEL 7
REMARK VINA RESULT:      -6.6     27.763     30.050
REMARK  4 active torsions:
REMARK  status: ('A' for Active; 'I' for Inactive)
REMARK    1  A    between atoms: O_2  and  C_14 
REMARK    2  A    between atoms: O_4  and  C_19 
REMARK    3  A    between atoms: O_5  and  C_22 
REMARK    4  A    between atoms: C_21  and  C_23 
ROOT
HETATM    1  O   UNK N   1     159.466 121.185 155.219  0.00  0.00    -0.312 OA
HETATM    2  O   UNK N   1     157.706 122.413 155.885  0.00  0.00    -0.264 OA
HETATM    3  C   UNK N   1     158.780 120.640 153.100  0.00  0.00     0.049 C 
HETATM    4  C   UNK N   1     157.991 121.912 153.560  0.00  0.00     0.085 C 
HETATM    5  C   UNK N   1     158.022 119.254 153.331  0.00  0.00    -0.040 C 
HETATM    6  C   UNK N   1     160.019 120.769 154.019  0.00  0.00     0.171 C 
HETATM    7  C   UNK N   1     156.497 121.836 153.126  0.00  0.00     0.025 C 
HETATM    8  C   UNK N   1     156.607 119.363 152.716  0.00  0.00     0.009 C 
HETATM    9  C   UNK N   1     158.762 123.183 153.089  0.00  0.00     0.006 A 
HETATM   10  C   UNK N   1     155.809 120.496 153.368  0.00  0.00     0.002 C 
HETATM   11  C   UNK N   1     160.956 121.882 153.482  0.00  0.00     0.184 C 
HETATM   12  C   UNK N   1     158.292 121.800 155.007  0.00  0.00     0.273 C 
HETATM   13  C   UNK N   1     160.188 123.139 153.070  0.00  0.00    -0.016 A 
HETATM   14  C   UNK N   1     158.783 118.131 152.587  0.00  0.00     0.015 C 
HETATM   15  C   UNK N   1     157.900 118.784 154.816  0.00  0.00     0.015 C 
HETATM   16  C   UNK N   1     158.119 124.390 152.695  0.00  0.00     0.107 A 
HETATM   17  C   UNK N   1     160.918 124.255 152.631  0.00  0.00     0.021 A 
HETATM   18  C   UNK N   1     160.286 125.447 152.236  0.00  0.00    -0.018 A 
HETATM   19  C   UNK N   1     158.866 125.513 152.288  0.00  0.00     0.106 A 
ENDROOT
BRANCH  18  20
HETATM   20  C   UNK N   1     161.146 126.626 151.763  0.00  0.00     0.013 C 
HETATM   21  C   UNK N   1     161.473 127.570 152.924  0.00  0.00     0.015 C 
HETATM   22  C   UNK N   1     162.425 126.136 151.070  0.00  0.00     0.015 C 
ENDBRANCH  18  20
BRANCH  19  23
HETATM   23  O   UNK N   1     158.179 126.637 151.969  0.00  0.00    -0.357 OA
HETATM   24  H   UNK N   1     157.223 126.745 151.967  0.00  0.00     0.218 HD
ENDBRANCH  19  23
BRANCH  16  25
HETATM   25  O   UNK N   1     156.772 124.488 152.722  0.00  0.00    -0.357 OA
HETATM   26  H   UNK N   1     156.283 125.254 152.392  0.00  0.00     0.218 HD
ENDBRANCH  16  25
BRANCH  11  27
HETATM   27  O   UNK N   1     161.912 122.231 154.473  0.00  0.00    -0.383 OA
HETATM   28  C   UNK N   1     163.068 121.423 154.379  0.00  0.00     0.202 C 
ENDBRANCH  11  27
TORSDOF 4
ENDMDL
MODEL 8
REMARK VINA RESULT:      -6.6     35.013     37.459
REMARK  4 active torsions:
REMARK  status: ('A' for Active; 'I' for Inactive)
REMARK    1  A    between atoms: O_2  and  C_14 
REMARK    2  A    between atoms: O_4  and  C_19 
REMARK    3  A    between atoms: O_5  and  C_22 
REMARK    4  A    between atoms: C_21  and  C_23 
ROOT
HETATM    1  O   UNK N   1     130.880 167.081 177.101  0.00  0.00    -0.312 OA
HETATM    2  O   UNK N   1     132.000 168.183 178.708  0.00  0.00    -0.264 OA
HETATM    3  C   UNK N   1     132.498 165.590 176.455  0.00  0.00     0.049 C 
HETATM    4  C   UNK N   1     132.841 166.092 177.897  0.00  0.00     0.085 C 
HETATM    5  C   UNK N   1     133.233 166.372 175.273  0.00  0.00    -0.040 C 
HETATM    6  C   UNK N   1     130.974 165.861 176.453  0.00  0.00     0.171 C 
HETATM    7  C   UNK N   1     134.369 166.349 178.056  0.00  0.00     0.025 C 
HETATM    8  C   UNK N   1     134.750 166.400 175.576  0.00  0.00     0.009 C 
HETATM    9  C   UNK N   1     132.215 165.113 178.937  0.00  0.00     0.006 A 
HETATM   10  C   UNK N   1     135.032 167.103 176.907  0.00  0.00     0.002 C 
HETATM   11  C   UNK N   1     130.248 164.783 177.299  0.00  0.00     0.184 C 
HETATM   12  C   UNK N   1     131.943 167.272 177.898  0.00  0.00     0.273 C 
HETATM   13  C   UNK N   1     130.963 164.506 178.623  0.00  0.00    -0.016 A 
HETATM   14  C   UNK N   1     133.022 165.601 173.949  0.00  0.00     0.015 C 
HETATM   15  C   UNK N   1     132.736 167.829 175.010  0.00  0.00     0.015 C 
HETATM   16  C   UNK N   1     132.817 164.809 180.190  0.00  0.00     0.107 A 
HETATM   17  C   UNK N   1     130.378 163.601 179.523  0.00  0.00     0.021 A 
HETATM   18  C   UNK N   1     130.972 163.294 180.759  0.00  0.00    -0.018 A 
HETATM   19  C   UNK N   1     132.201 163.924 181.098  0.00  0.00     0.106 A 
ENDROOT
BRANCH  18  20
HETATM   20  C   UNK N   1     130.278 162.291 181.691  0.00  0.00     0.013 C 
HETATM   21  C   UNK N   1     129.348 163.008 182.675  0.00  0.00     0.015 C 
HETATM   22  C   UNK N   1     129.522 161.222 180.892  0.00  0.00     0.015 C 
ENDBRANCH  18  20
BRANCH  19  23
HETATM   23  O   UNK N   1     132.819 163.720 182.286  0.00  0.00    -0.357 OA
HETATM   24  H   UNK N   1     132.476 163.943 183.158  0.00  0.00     0.218 HD
ENDBRANCH  19  23
BRANCH  16  25
HETATM   25  O   UNK N   1     133.989 165.381 180.544  0.00  0.00    -0.357 OA
HETATM   26  H   UNK N   1     134.840 164.925 180.507  0.00  0.00     0.218 HD
ENDBRANCH  16  25
BRANCH  11  27
HETATM   27  O   UNK N   1     128.916 165.196 177.573  0.00  0.00    -0.383 OA
HETATM   28  C   UNK N   1     127.976 164.280 177.048  0.00  0.00     0.202 C 
ENDBRANCH  11  27
TORSDOF 4
ENDMDL
MODEL 9
REMARK VINA RESULT:      -6.5     28.444     30.412
REMARK  4 active torsions:
REMARK  status: ('A' for Active; 'I' for Inactive)
REMARK    1  A    between atoms: O_2  and  C_14 
REMARK    2  A    between atoms: O_4  and  C_19 
REMARK    3  A    between atoms: O_5  and  C_22 
REMARK    4  A    between atoms: C_21  and  C_23 
ROOT
HETATM    1  O   UNK N   1     163.160 123.532 151.522  0.00  0.00    -0.312 OA
HETATM    2  O   UNK N   1     162.344 125.124 150.160  0.00  0.00    -0.264 OA
HETATM    3  C   UNK N   1     163.110 124.664 153.515  0.00  0.00     0.049 C 
HETATM    4  C   UNK N   1     162.106 125.355 152.533  0.00  0.00     0.085 C 
HETATM    5  C   UNK N   1     164.563 125.323 153.573  0.00  0.00    -0.040 C 
HETATM    6  C   UNK N   1     163.151 123.254 152.878  0.00  0.00     0.171 C 
HETATM    7  C   UNK N   1     162.180 126.907 152.650  0.00  0.00     0.025 C 
HETATM    8  C   UNK N   1     164.400 126.841 153.817  0.00  0.00     0.009 C 
HETATM    9  C   UNK N   1     160.690 124.735 152.737  0.00  0.00     0.006 A 
HETATM   10  C   UNK N   1     163.587 127.496 152.697  0.00  0.00     0.002 C 
HETATM   11  C   UNK N   1     161.851 122.483 153.226  0.00  0.00     0.184 C 
HETATM   12  C   UNK N   1     162.615 124.736 151.286  0.00  0.00     0.273 C 
HETATM   13  C   UNK N   1     160.601 123.349 153.062  0.00  0.00    -0.016 A 
HETATM   14  C   UNK N   1     165.343 124.724 154.767  0.00  0.00     0.015 C 
HETATM   15  C   UNK N   1     165.461 125.100 152.314  0.00  0.00     0.015 C 
HETATM   16  C   UNK N   1     159.481 125.475 152.597  0.00  0.00     0.107 A 
HETATM   17  C   UNK N   1     159.345 122.759 153.276  0.00  0.00     0.021 A 
HETATM   18  C   UNK N   1     158.150 123.487 153.143  0.00  0.00    -0.018 A 
HETATM   19  C   UNK N   1     158.227 124.860 152.781  0.00  0.00     0.106 A 
ENDROOT
BRANCH  18  20
HETATM   20  C   UNK N   1     156.813 122.778 153.397  0.00  0.00     0.013 C 
HETATM   21  C   UNK N   1     156.868 121.318 152.935  0.00  0.00     0.015 C 
HETATM   22  C   UNK N   1     156.403 122.877 154.873  0.00  0.00     0.015 C 
ENDBRANCH  18  20
BRANCH  19  23
HETATM   23  O   UNK N   1     157.124 125.624 152.589  0.00  0.00    -0.357 OA
HETATM   24  H   UNK N   1     156.930 126.468 153.008  0.00  0.00     0.218 HD
ENDBRANCH  19  23
BRANCH  16  25
HETATM   25  O   UNK N   1     159.514 126.783 152.263  0.00  0.00    -0.357 OA
HETATM   26  H   UNK N   1     159.458 127.502 152.906  0.00  0.00     0.218 HD
ENDBRANCH  16  25
BRANCH  11  27
HETATM   27  O   UNK N   1     161.729 121.336 152.396  0.00  0.00    -0.383 OA
HETATM   28  C   UNK N   1     162.115 120.162 153.081  0.00  0.00     0.202 C 
ENDBRANCH  11  27
TORSDOF 4
ENDMDL
