MODEL 1
REMARK VINA RESULT:      -8.5      0.000      0.000
REMARK  1 active torsions:
REMARK  status: ('A' for Active; 'I' for Inactive)
REMARK    1  A    between atoms: O_4  and  C_18 
ROOT
HETATM    1  O   UNK N   1     149.215 149.088 143.157  0.00  0.00    -0.310 OA
HETATM    2  O   UNK N   1     148.357 150.745 141.882  0.00  0.00    -0.264 OA
HETATM    3  O   UNK N   1     152.309 152.988 146.714  0.00  0.00    -0.347 OA
HETATM    4  C   UNK N   1     151.668 149.710 141.832  0.00  0.00     0.019 C 
HETATM    5  C   UNK N   1     150.722 150.846 142.381  0.00  0.00     0.083 C 
HETATM    6  C   UNK N   1     151.639 149.516 140.264  0.00  0.00    -0.043 C 
HETATM    7  C   UNK N   1     151.433 148.378 142.664  0.00  0.00     0.044 C 
HETATM    8  C   UNK N   1     150.873 152.149 141.557  0.00  0.00     0.025 C 
HETATM    9  C   UNK N   1     151.812 150.907 139.590  0.00  0.00     0.009 C 
HETATM   10  C   UNK N   1     150.379 148.626 143.783  0.00  0.00     0.166 C 
HETATM   11  C   UNK N   1     151.075 150.982 143.883  0.00  0.00     0.006 A 
HETATM   12  C   UNK N   1     150.748 151.920 140.050  0.00  0.00     0.002 C 
HETATM   13  C   UNK N   1     150.898 149.778 144.612  0.00  0.00    -0.018 A 
HETATM   14  C   UNK N   1     149.327 150.238 142.421  0.00  0.00     0.273 C 
HETATM   15  C   UNK N   1     150.343 148.850 139.720  0.00  0.00     0.015 C 
HETATM   16  C   UNK N   1     152.828 148.624 139.840  0.00  0.00     0.015 C 
HETATM   17  C   UNK N   1     151.539 152.139 144.567  0.00  0.00     0.107 A 
HETATM   18  C   UNK N   1     151.158 149.710 145.990  0.00  0.00     0.021 A 
HETATM   19  C   UNK N   1     151.648 150.858 146.617  0.00  0.00    -0.015 A 
HETATM   20  C   UNK N   1     151.828 152.020 145.931  0.00  0.00     0.109 A 
HETATM   21  C   UNK N   1     151.962 151.089 148.050  0.00  0.00     0.042 C 
HETATM   22  C   UNK N   1     152.656 152.486 147.957  0.00  0.00     0.184 C 
HETATM   23  C   UNK N   1     152.829 150.030 148.727  0.00  0.00     0.017 C 
ENDROOT
BRANCH  17  24
HETATM   24  O   UNK N   1     151.709 153.320 143.938  0.00  0.00    -0.357 OA
HETATM   25  H   UNK N   1     151.862 154.143 144.424  0.00  0.00     0.218 HD
ENDBRANCH  17  24
TORSDOF 1
ENDMDL
MODEL 2
REMARK VINA RESULT:      -7.6     23.610     25.559
REMARK  1 active torsions:
REMARK  status: ('A' for Active; 'I' for Inactive)
REMARK    1  A    between atoms: O_4  and  C_18 
ROOT
HETATM    1  O   UNK N   1     169.646 134.675 149.909  0.00  0.00    -0.310 OA
HETATM    2  O   UNK N   1     170.151 134.050 147.797  0.00  0.00    -0.264 OA
HETATM    3  O   UNK N   1     167.840 129.046 151.488  0.00  0.00    -0.347 OA
HETATM    4  C   UNK N   1     166.936 134.365 149.062  0.00  0.00     0.019 C 
HETATM    5  C   UNK N   1     168.037 133.295 148.697  0.00  0.00     0.083 C 
HETATM    6  C   UNK N   1     166.504 135.311 147.872  0.00  0.00    -0.043 C 
HETATM    7  C   UNK N   1     167.359 135.128 150.389  0.00  0.00     0.044 C 
HETATM    8  C   UNK N   1     167.695 132.568 147.373  0.00  0.00     0.025 C 
HETATM    9  C   UNK N   1     166.189 134.431 146.629  0.00  0.00     0.009 C 
HETATM   10  C   UNK N   1     168.699 134.550 150.932  0.00  0.00     0.166 C 
HETATM   11  C   UNK N   1     168.137 132.373 149.938  0.00  0.00     0.006 A 
HETATM   12  C   UNK N   1     167.372 133.531 146.230  0.00  0.00     0.002 C 
HETATM   13  C   UNK N   1     168.479 133.068 151.127  0.00  0.00    -0.018 A 
HETATM   14  C   UNK N   1     169.364 134.041 148.729  0.00  0.00     0.273 C 
HETATM   15  C   UNK N   1     167.566 136.377 147.478  0.00  0.00     0.015 C 
HETATM   16  C   UNK N   1     165.215 136.068 148.267  0.00  0.00     0.015 C 
HETATM   17  C   UNK N   1     167.928 130.969 149.998  0.00  0.00     0.107 A 
HETATM   18  C   UNK N   1     168.627 132.398 152.351  0.00  0.00     0.021 A 
HETATM   19  C   UNK N   1     168.377 131.024 152.375  0.00  0.00    -0.015 A 
HETATM   20  C   UNK N   1     168.043 130.342 151.244  0.00  0.00     0.109 A 
HETATM   21  C   UNK N   1     168.498 130.061 153.500  0.00  0.00     0.042 C 
HETATM   22  C   UNK N   1     167.852 128.796 152.849  0.00  0.00     0.184 C 
HETATM   23  C   UNK N   1     167.830 130.472 154.810  0.00  0.00     0.017 C 
ENDROOT
BRANCH  17  24
HETATM   24  O   UNK N   1     167.622 130.245 148.901  0.00  0.00    -0.357 OA
HETATM   25  H   UNK N   1     167.809 129.297 148.843  0.00  0.00     0.218 HD
ENDBRANCH  17  24
TORSDOF 1
ENDMDL
MODEL 3
REMARK VINA RESULT:      -7.6     40.363     43.704
REMARK  1 active torsions:
REMARK  status: ('A' for Active; 'I' for Inactive)
REMARK    1  A    between atoms: O_4  and  C_18 
ROOT
HETATM    1  O   UNK N   1     130.036 164.302 179.421  0.00  0.00    -0.310 OA
HETATM    2  O   UNK N   1     129.982 165.730 181.172  0.00  0.00    -0.264 OA
HETATM    3  O   UNK N   1     132.451 168.487 175.667  0.00  0.00    -0.347 OA
HETATM    4  C   UNK N   1     127.894 165.895 178.406  0.00  0.00     0.019 C 
HETATM    5  C   UNK N   1     129.175 166.556 179.046  0.00  0.00     0.083 C 
HETATM    6  C   UNK N   1     126.602 165.922 179.317  0.00  0.00    -0.043 C 
HETATM    7  C   UNK N   1     128.266 164.461 177.836  0.00  0.00     0.044 C 
HETATM    8  C   UNK N   1     128.842 167.934 179.671  0.00  0.00     0.025 C 
HETATM    9  C   UNK N   1     126.405 167.368 179.854  0.00  0.00     0.009 C 
HETATM   10  C   UNK N   1     129.784 164.180 178.049  0.00  0.00     0.166 C 
HETATM   11  C   UNK N   1     130.226 166.595 177.909  0.00  0.00     0.006 A 
HETATM   12  C   UNK N   1     127.639 167.887 180.614  0.00  0.00     0.002 C 
HETATM   13  C   UNK N   1     130.527 165.313 177.380  0.00  0.00    -0.018 A 
HETATM   14  C   UNK N   1     129.748 165.512 179.994  0.00  0.00     0.273 C 
HETATM   15  C   UNK N   1     126.642 164.939 180.521  0.00  0.00     0.015 C 
HETATM   16  C   UNK N   1     125.369 165.554 178.461  0.00  0.00     0.015 C 
HETATM   17  C   UNK N   1     130.884 167.733 177.370  0.00  0.00     0.107 A 
HETATM   18  C   UNK N   1     131.465 165.147 176.349  0.00  0.00     0.021 A 
HETATM   19  C   UNK N   1     132.062 166.295 175.822  0.00  0.00    -0.015 A 
HETATM   20  C   UNK N   1     131.781 167.532 176.315  0.00  0.00     0.109 A 
HETATM   21  C   UNK N   1     133.108 166.418 174.775  0.00  0.00     0.042 C 
HETATM   22  C   UNK N   1     133.103 167.966 174.563  0.00  0.00     0.184 C 
HETATM   23  C   UNK N   1     132.867 165.633 173.488  0.00  0.00     0.017 C 
ENDROOT
BRANCH  17  24
HETATM   24  O   UNK N   1     130.660 168.977 177.842  0.00  0.00    -0.357 OA
HETATM   25  H   UNK N   1     129.833 169.450 177.670  0.00  0.00     0.218 HD
ENDBRANCH  17  24
TORSDOF 1
ENDMDL
MODEL 4
REMARK VINA RESULT:      -7.5     23.749     25.937
REMARK  1 active torsions:
REMARK  status: ('A' for Active; 'I' for Inactive)
REMARK    1  A    between atoms: O_4  and  C_18 
ROOT
HETATM    1  O   UNK N   1     168.819 133.720 152.029  0.00  0.00    -0.310 OA
HETATM    2  O   UNK N   1     168.467 131.533 152.476  0.00  0.00    -0.264 OA
HETATM    3  O   UNK N   1     165.495 133.540 146.896  0.00  0.00    -0.347 OA
HETATM    4  C   UNK N   1     170.503 132.740 149.940  0.00  0.00     0.019 C 
HETATM    5  C   UNK N   1     169.081 132.113 150.209  0.00  0.00     0.083 C 
HETATM    6  C   UNK N   1     171.724 131.865 150.431  0.00  0.00    -0.043 C 
HETATM    7  C   UNK N   1     170.524 134.244 150.451  0.00  0.00     0.044 C 
HETATM    8  C   UNK N   1     169.035 130.625 149.782  0.00  0.00     0.025 C 
HETATM    9  C   UNK N   1     171.531 130.411 149.914  0.00  0.00     0.009 C 
HETATM   10  C   UNK N   1     169.125 134.634 151.015  0.00  0.00     0.166 C 
HETATM   11  C   UNK N   1     168.081 133.033 149.468  0.00  0.00     0.006 A 
HETATM   12  C   UNK N   1     170.189 129.802 150.357  0.00  0.00     0.002 C 
HETATM   13  C   UNK N   1     168.131 134.383 149.905  0.00  0.00    -0.018 A 
HETATM   14  C   UNK N   1     168.775 132.398 151.673  0.00  0.00     0.273 C 
HETATM   15  C   UNK N   1     171.911 131.829 151.975  0.00  0.00     0.015 C 
HETATM   16  C   UNK N   1     173.029 132.425 149.822  0.00  0.00     0.015 C 
HETATM   17  C   UNK N   1     167.165 132.676 148.442  0.00  0.00     0.107 A 
HETATM   18  C   UNK N   1     167.290 135.363 149.355  0.00  0.00     0.021 A 
HETATM   19  C   UNK N   1     166.430 134.978 148.324  0.00  0.00    -0.015 A 
HETATM   20  C   UNK N   1     166.372 133.689 147.890  0.00  0.00     0.109 A 
HETATM   21  C   UNK N   1     165.410 135.778 147.598  0.00  0.00     0.042 C 
HETATM   22  C   UNK N   1     165.023 134.769 146.469  0.00  0.00     0.184 C 
HETATM   23  C   UNK N   1     165.873 137.131 147.063  0.00  0.00     0.017 C 
ENDROOT
BRANCH  17  24
HETATM   24  O   UNK N   1     167.051 131.408 147.996  0.00  0.00    -0.357 OA
HETATM   25  H   UNK N   1     166.518 130.747 148.459  0.00  0.00     0.218 HD
ENDBRANCH  17  24
TORSDOF 1
ENDMDL
MODEL 5
REMARK VINA RESULT:      -7.5     30.183     31.604
REMARK  1 active torsions:
REMARK  status: ('A' for Active; 'I' for Inactive)
REMARK    1  A    between atoms: O_4  and  C_18 
ROOT
HETATM    1  O   UNK N   1     161.431 130.704 121.610  0.00  0.00    -0.310 OA
HETATM    2  O   UNK N   1     162.267 132.134 123.148  0.00  0.00    -0.264 OA
HETATM    3  O   UNK N   1     158.351 127.483 125.801  0.00  0.00    -0.347 OA
HETATM    4  C   UNK N   1     163.247 128.828 122.767  0.00  0.00     0.019 C 
HETATM    5  C   UNK N   1     162.361 129.773 123.667  0.00  0.00     0.083 C 
HETATM    6  C   UNK N   1     164.771 129.236 122.668  0.00  0.00    -0.043 C 
HETATM    7  C   UNK N   1     162.533 128.608 121.366  0.00  0.00     0.044 C 
HETATM    8  C   UNK N   1     163.051 130.065 125.022  0.00  0.00     0.025 C 
HETATM    9  C   UNK N   1     165.311 129.483 124.105  0.00  0.00     0.009 C 
HETATM   10  C   UNK N   1     161.167 129.357 121.340  0.00  0.00     0.166 C 
HETATM   11  C   UNK N   1     160.988 129.064 123.775  0.00  0.00     0.006 A 
HETATM   12  C   UNK N   1     164.495 130.543 124.867  0.00  0.00     0.002 C 
HETATM   13  C   UNK N   1     160.373 128.838 122.516  0.00  0.00    -0.018 A 
HETATM   14  C   UNK N   1     162.042 130.985 122.803  0.00  0.00     0.273 C 
HETATM   15  C   UNK N   1     165.045 130.499 121.802  0.00  0.00     0.015 C 
HETATM   16  C   UNK N   1     165.570 128.068 122.046  0.00  0.00     0.015 C 
HETATM   17  C   UNK N   1     160.319 128.638 124.954  0.00  0.00     0.107 A 
HETATM   18  C   UNK N   1     159.118 128.216 122.415  0.00  0.00     0.021 A 
HETATM   19  C   UNK N   1     158.511 127.779 123.594  0.00  0.00    -0.015 A 
HETATM   20  C   UNK N   1     159.090 127.984 124.810  0.00  0.00     0.109 A 
HETATM   21  C   UNK N   1     157.184 127.142 123.793  0.00  0.00     0.042 C 
HETATM   22  C   UNK N   1     157.295 126.743 125.300  0.00  0.00     0.184 C 
HETATM   23  C   UNK N   1     156.862 125.962 122.879  0.00  0.00     0.017 C 
ENDROOT
BRANCH  17  24
HETATM   24  O   UNK N   1     160.838 128.841 126.183  0.00  0.00    -0.357 OA
HETATM   25  H   UNK N   1     160.341 129.286 126.883  0.00  0.00     0.218 HD
ENDBRANCH  17  24
TORSDOF 1
ENDMDL
MODEL 6
REMARK VINA RESULT:      -7.4     10.650     14.198
REMARK  1 active torsions:
REMARK  status: ('A' for Active; 'I' for Inactive)
REMARK    1  A    between atoms: O_4  and  C_18 
ROOT
HETATM    1  O   UNK N   1     152.166 161.053 152.846  0.00  0.00    -0.310 OA
HETATM    2  O   UNK N   1     154.194 160.137 153.241  0.00  0.00    -0.264 OA
HETATM    3  O   UNK N   1     149.874 159.066 158.159  0.00  0.00    -0.347 OA
HETATM    4  C   UNK N   1     151.322 158.350 152.469  0.00  0.00     0.019 C 
HETATM    5  C   UNK N   1     152.254 158.757 153.674  0.00  0.00     0.083 C 
HETATM    6  C   UNK N   1     152.048 157.589 151.289  0.00  0.00    -0.043 C 
HETATM    7  C   UNK N   1     150.467 159.608 152.013  0.00  0.00     0.044 C 
HETATM    8  C   UNK N   1     153.153 157.574 154.112  0.00  0.00     0.025 C 
HETATM    9  C   UNK N   1     152.896 156.434 151.893  0.00  0.00     0.009 C 
HETATM   10  C   UNK N   1     150.787 160.829 152.925  0.00  0.00     0.166 C 
HETATM   11  C   UNK N   1     151.298 159.287 154.771  0.00  0.00     0.006 A 
HETATM   12  C   UNK N   1     153.903 156.930 152.945  0.00  0.00     0.002 C 
HETATM   13  C   UNK N   1     150.510 160.388 154.343  0.00  0.00    -0.018 A 
HETATM   14  C   UNK N   1     152.980 160.019 153.227  0.00  0.00     0.273 C 
HETATM   15  C   UNK N   1     152.970 158.487 150.415  0.00  0.00     0.015 C 
HETATM   16  C   UNK N   1     150.986 156.971 150.353  0.00  0.00     0.015 C 
HETATM   17  C   UNK N   1     151.138 158.800 156.096  0.00  0.00     0.107 A 
HETATM   18  C   UNK N   1     149.592 161.010 155.204  0.00  0.00     0.021 A 
HETATM   19  C   UNK N   1     149.438 160.478 156.486  0.00  0.00    -0.015 A 
HETATM   20  C   UNK N   1     150.182 159.419 156.910  0.00  0.00     0.109 A 
HETATM   21  C   UNK N   1     148.588 160.951 157.609  0.00  0.00     0.042 C 
HETATM   22  C   UNK N   1     148.763 159.760 158.605  0.00  0.00     0.184 C 
HETATM   23  C   UNK N   1     147.128 161.243 157.269  0.00  0.00     0.017 C 
ENDROOT
BRANCH  17  24
HETATM   24  O   UNK N   1     151.869 157.771 156.572  0.00  0.00    -0.357 OA
HETATM   25  H   UNK N   1     151.525 156.868 156.603  0.00  0.00     0.218 HD
ENDBRANCH  17  24
TORSDOF 1
ENDMDL
MODEL 7
REMARK VINA RESULT:      -7.4      4.687      7.189
REMARK  1 active torsions:
REMARK  status: ('A' for Active; 'I' for Inactive)
REMARK    1  A    between atoms: O_4  and  C_18 
ROOT
HETATM    1  O   UNK N   1     148.788 151.410 146.629  0.00  0.00    -0.310 OA
HETATM    2  O   UNK N   1     150.303 152.979 146.038  0.00  0.00    -0.264 OA
HETATM    3  O   UNK N   1     146.472 154.871 151.112  0.00  0.00    -0.347 OA
HETATM    4  C   UNK N   1     150.444 151.069 148.931  0.00  0.00     0.019 C 
HETATM    5  C   UNK N   1     150.066 152.505 148.398  0.00  0.00     0.083 C 
HETATM    6  C   UNK N   1     151.924 150.608 148.618  0.00  0.00    -0.043 C 
HETATM    7  C   UNK N   1     149.326 150.031 148.494  0.00  0.00     0.044 C 
HETATM    8  C   UNK N   1     151.163 153.540 148.749  0.00  0.00     0.025 C 
HETATM    9  C   UNK N   1     152.896 151.749 149.033  0.00  0.00     0.009 C 
HETATM   10  C   UNK N   1     148.191 150.764 147.718  0.00  0.00     0.166 C 
HETATM   11  C   UNK N   1     148.671 152.808 148.997  0.00  0.00     0.006 A 
HETATM   12  C   UNK N   1     152.566 153.084 148.344  0.00  0.00     0.002 C 
HETATM   13  C   UNK N   1     147.684 151.855 148.632  0.00  0.00    -0.018 A 
HETATM   14  C   UNK N   1     149.762 152.328 146.917  0.00  0.00     0.273 C 
HETATM   15  C   UNK N   1     152.183 150.244 147.128  0.00  0.00     0.015 C 
HETATM   16  C   UNK N   1     152.256 149.358 149.463  0.00  0.00     0.015 C 
HETATM   17  C   UNK N   1     148.301 153.894 149.837  0.00  0.00     0.107 A 
HETATM   18  C   UNK N   1     146.356 151.970 149.071  0.00  0.00     0.021 A 
HETATM   19  C   UNK N   1     146.042 153.030 149.925  0.00  0.00    -0.015 A 
HETATM   20  C   UNK N   1     146.977 153.951 150.288  0.00  0.00     0.109 A 
HETATM   21  C   UNK N   1     144.730 153.422 150.500  0.00  0.00     0.042 C 
HETATM   22  C   UNK N   1     145.190 154.528 151.503  0.00  0.00     0.184 C 
HETATM   23  C   UNK N   1     143.926 152.305 151.162  0.00  0.00     0.017 C 
ENDROOT
BRANCH  17  24
HETATM   24  O   UNK N   1     149.184 154.845 150.204  0.00  0.00    -0.357 OA
HETATM   25  H   UNK N   1     149.707 154.775 151.015  0.00  0.00     0.218 HD
ENDBRANCH  17  24
TORSDOF 1
ENDMDL
MODEL 8
REMARK VINA RESULT:      -7.3      9.283     12.966
REMARK  1 active torsions:
REMARK  status: ('A' for Active; 'I' for Inactive)
REMARK    1  A    between atoms: O_4  and  C_18 
ROOT
HETATM    1  O   UNK N   1     152.892 157.944 153.424  0.00  0.00    -0.310 OA
HETATM    2  O   UNK N   1     151.506 156.418 154.349  0.00  0.00    -0.264 OA
HETATM    3  O   UNK N   1     148.726 162.413 153.765  0.00  0.00    -0.347 OA
HETATM    4  C   UNK N   1     151.185 157.713 151.147  0.00  0.00     0.019 C 
HETATM    5  C   UNK N   1     150.595 157.826 152.605  0.00  0.00     0.083 C 
HETATM    6  C   UNK N   1     151.124 156.267 150.511  0.00  0.00    -0.043 C 
HETATM    7  C   UNK N   1     152.620 158.391 151.102  0.00  0.00     0.044 C 
HETATM    8  C   UNK N   1     149.220 157.121 152.710  0.00  0.00     0.025 C 
HETATM    9  C   UNK N   1     149.684 155.707 150.690  0.00  0.00     0.009 C 
HETATM   10  C   UNK N   1     152.970 158.989 152.497  0.00  0.00     0.166 C 
HETATM   11  C   UNK N   1     150.574 159.341 152.922  0.00  0.00     0.006 A 
HETATM   12  C   UNK N   1     149.237 155.692 152.163  0.00  0.00     0.002 C 
HETATM   13  C   UNK N   1     151.855 159.948 152.844  0.00  0.00    -0.018 A 
HETATM   14  C   UNK N   1     151.685 157.306 153.532  0.00  0.00     0.273 C 
HETATM   15  C   UNK N   1     152.137 155.253 151.117  0.00  0.00     0.015 C 
HETATM   16  C   UNK N   1     151.419 156.364 148.997  0.00  0.00     0.015 C 
HETATM   17  C   UNK N   1     149.453 160.144 153.263  0.00  0.00     0.107 A 
HETATM   18  C   UNK N   1     152.037 161.314 153.108  0.00  0.00     0.021 A 
HETATM   19  C   UNK N   1     150.903 162.076 153.404  0.00  0.00    -0.015 A 
HETATM   20  C   UNK N   1     149.667 161.510 153.479  0.00  0.00     0.109 A 
HETATM   21  C   UNK N   1     150.800 163.512 153.767  0.00  0.00     0.042 C 
HETATM   22  C   UNK N   1     149.249 163.694 153.729  0.00  0.00     0.184 C 
HETATM   23  C   UNK N   1     151.544 164.490 152.860  0.00  0.00     0.017 C 
ENDROOT
BRANCH  17  24
HETATM   24  O   UNK N   1     148.212 159.627 153.375  0.00  0.00    -0.357 OA
HETATM   25  H   UNK N   1     147.491 160.109 153.805  0.00  0.00     0.218 HD
ENDBRANCH  17  24
TORSDOF 1
ENDMDL
MODEL 9
REMARK VINA RESULT:      -7.2     23.000     26.935
REMARK  1 active torsions:
REMARK  status: ('A' for Active; 'I' for Inactive)
REMARK    1  A    between atoms: O_4  and  C_18 
ROOT
HETATM    1  O   UNK N   1     136.987 149.858 121.961  0.00  0.00    -0.310 OA
HETATM    2  O   UNK N   1     137.275 149.171 124.095  0.00  0.00    -0.264 OA
HETATM    3  O   UNK N   1     135.733 144.209 119.971  0.00  0.00    -0.347 OA
HETATM    4  C   UNK N   1     139.473 148.534 121.488  0.00  0.00     0.019 C 
HETATM    5  C   UNK N   1     138.342 147.865 122.360  0.00  0.00     0.083 C 
HETATM    6  C   UNK N   1     140.696 149.111 122.307  0.00  0.00    -0.043 C 
HETATM    7  C   UNK N   1     138.820 149.562 120.470  0.00  0.00     0.044 C 
HETATM    8  C   UNK N   1     138.941 146.899 123.412  0.00  0.00     0.025 C 
HETATM    9  C   UNK N   1     141.182 148.021 123.305  0.00  0.00     0.009 C 
HETATM   10  C   UNK N   1     137.270 149.553 120.625  0.00  0.00     0.166 C 
HETATM   11  C   UNK N   1     137.379 147.204 121.344  0.00  0.00     0.006 A 
HETATM   12  C   UNK N   1     140.060 147.535 124.239  0.00  0.00     0.002 C 
HETATM   13  C   UNK N   1     136.827 148.124 120.414  0.00  0.00    -0.018 A 
HETATM   14  C   UNK N   1     137.509 149.017 122.908  0.00  0.00     0.273 C 
HETATM   15  C   UNK N   1     140.384 150.414 123.098  0.00  0.00     0.015 C 
HETATM   16  C   UNK N   1     141.855 149.427 121.336  0.00  0.00     0.015 C 
HETATM   17  C   UNK N   1     137.014 145.833 121.254  0.00  0.00     0.107 A 
HETATM   18  C   UNK N   1     135.924 147.710 119.422  0.00  0.00     0.021 A 
HETATM   19  C   UNK N   1     135.620 146.349 119.345  0.00  0.00    -0.015 A 
HETATM   20  C   UNK N   1     136.144 145.453 120.226  0.00  0.00     0.109 A 
HETATM   21  C   UNK N   1     134.676 145.642 118.442  0.00  0.00     0.042 C 
HETATM   22  C   UNK N   1     135.034 144.159 118.778  0.00  0.00     0.184 C 
HETATM   23  C   UNK N   1     134.797 145.969 116.955  0.00  0.00     0.017 C 
ENDROOT
BRANCH  17  24
HETATM   24  O   UNK N   1     137.486 144.912 122.119  0.00  0.00    -0.357 OA
HETATM   25  H   UNK N   1     137.022 144.078 122.284  0.00  0.00     0.218 HD
ENDBRANCH  17  24
TORSDOF 1
ENDMDL
