MODEL 1
REMARK VINA RESULT:      -8.4      0.000      0.000
REMARK  3 active torsions:
REMARK  status: ('A' for Active; 'I' for Inactive)
REMARK    1  A    between atoms: O_3  and  C_18 
REMARK    2  A    between atoms: O_4  and  C_21 
REMARK    3  A    between atoms: C_20  and  C_22 
ROOT
HETATM    1  O   UNK N   1     153.829 151.538 143.516  0.00  0.00    -0.310 OA
HETATM    2  O   UNK N   1     154.728 149.504 143.152  0.00  0.00    -0.264 OA
HETATM    3  C   UNK N   1     151.283 150.194 143.257  0.00  0.00     0.019 C 
HETATM    4  C   UNK N   1     152.488 149.569 144.075  0.00  0.00     0.083 C 
HETATM    5  C   UNK N   1     150.853 149.356 142.017  0.00  0.00    -0.043 C 
HETATM    6  C   UNK N   1     151.520 151.742 143.052  0.00  0.00     0.044 C 
HETATM    7  C   UNK N   1     152.500 148.004 144.024  0.00  0.00     0.025 C 
HETATM    8  C   UNK N   1     150.483 147.898 142.500  0.00  0.00     0.009 C 
HETATM    9  C   UNK N   1     152.692 152.207 143.971  0.00  0.00     0.166 C 
HETATM   10  C   UNK N   1     152.340 150.271 145.455  0.00  0.00     0.006 A 
HETATM   11  C   UNK N   1     151.077 147.476 143.875  0.00  0.00     0.002 C 
HETATM   12  C   UNK N   1     152.434 151.676 145.370  0.00  0.00    -0.018 A 
HETATM   13  C   UNK N   1     153.781 150.174 143.530  0.00  0.00     0.273 C 
HETATM   14  C   UNK N   1     151.983 149.301 140.953  0.00  0.00     0.015 C 
HETATM   15  C   UNK N   1     149.613 149.981 141.340  0.00  0.00     0.015 C 
HETATM   16  C   UNK N   1     152.120 149.666 146.711  0.00  0.00     0.107 A 
HETATM   17  C   UNK N   1     152.334 152.480 146.499  0.00  0.00     0.021 A 
HETATM   18  C   UNK N   1     152.138 151.899 147.763  0.00  0.00    -0.018 A 
HETATM   19  C   UNK N   1     152.036 150.485 147.875  0.00  0.00     0.106 A 
ENDROOT
BRANCH  18  20
HETATM   20  C   UNK N   1     152.040 152.816 148.979  0.00  0.00     0.013 C 
HETATM   21  C   UNK N   1     150.791 153.708 148.925  0.00  0.00     0.015 C 
HETATM   22  C   UNK N   1     153.315 153.653 149.153  0.00  0.00     0.015 C 
ENDBRANCH  18  20
BRANCH  19  23
HETATM   23  O   UNK N   1     151.873 149.942 149.102  0.00  0.00    -0.357 OA
HETATM   24  H   UNK N   1     151.182 149.313 149.340  0.00  0.00     0.218 HD
ENDBRANCH  19  23
BRANCH  16  25
HETATM   25  O   UNK N   1     151.974 148.325 146.788  0.00  0.00    -0.357 OA
HETATM   26  H   UNK N   1     151.162 147.848 146.588  0.00  0.00     0.218 HD
ENDBRANCH  16  25
TORSDOF 3
ENDMDL
MODEL 2
REMARK VINA RESULT:      -7.5      2.121      2.964
REMARK  3 active torsions:
REMARK  status: ('A' for Active; 'I' for Inactive)
REMARK    1  A    between atoms: O_3  and  C_18 
REMARK    2  A    between atoms: O_4  and  C_21 
REMARK    3  A    between atoms: C_20  and  C_22 
ROOT
HETATM    1  O   UNK N   1     152.282 148.402 143.711  0.00  0.00    -0.310 OA
HETATM    2  O   UNK N   1     150.464 147.271 143.010  0.00  0.00    -0.264 OA
HETATM    3  C   UNK N   1     151.057 150.687 142.432  0.00  0.00     0.019 C 
HETATM    4  C   UNK N   1     150.224 149.664 143.311  0.00  0.00     0.083 C 
HETATM    5  C   UNK N   1     150.632 150.735 140.935  0.00  0.00    -0.043 C 
HETATM    6  C   UNK N   1     152.596 150.541 142.757  0.00  0.00     0.044 C 
HETATM    7  C   UNK N   1     148.749 149.506 142.809  0.00  0.00     0.025 C 
HETATM    8  C   UNK N   1     149.094 151.083 140.861  0.00  0.00     0.009 C 
HETATM    9  C   UNK N   1     152.771 149.668 144.037  0.00  0.00     0.166 C 
HETATM   10  C   UNK N   1     150.471 150.197 144.750  0.00  0.00     0.006 A 
HETATM   11  C   UNK N   1     148.279 150.801 142.157  0.00  0.00     0.002 C 
HETATM   12  C   UNK N   1     151.837 150.206 145.106  0.00  0.00    -0.018 A 
HETATM   13  C   UNK N   1     150.978 148.335 143.313  0.00  0.00     0.273 C 
HETATM   14  C   UNK N   1     150.914 149.382 140.226  0.00  0.00     0.015 C 
HETATM   15  C   UNK N   1     151.423 151.825 140.179  0.00  0.00     0.015 C 
HETATM   16  C   UNK N   1     149.511 150.659 145.676  0.00  0.00     0.107 A 
HETATM   17  C   UNK N   1     152.258 150.642 146.357  0.00  0.00     0.021 A 
HETATM   18  C   UNK N   1     151.318 151.085 147.303  0.00  0.00    -0.018 A 
HETATM   19  C   UNK N   1     149.936 151.089 146.967  0.00  0.00     0.106 A 
ENDROOT
BRANCH  18  20
HETATM   20  C   UNK N   1     151.821 151.549 148.667  0.00  0.00     0.013 C 
HETATM   21  C   UNK N   1     153.054 152.456 148.545  0.00  0.00     0.015 C 
HETATM   22  C   UNK N   1     152.094 150.359 149.598  0.00  0.00     0.015 C 
ENDBRANCH  18  20
BRANCH  19  23
HETATM   23  O   UNK N   1     149.044 151.494 147.898  0.00  0.00    -0.357 OA
HETATM   24  H   UNK N   1     148.799 152.411 148.067  0.00  0.00     0.218 HD
ENDBRANCH  19  23
BRANCH  16  25
HETATM   25  O   UNK N   1     148.209 150.704 145.318  0.00  0.00    -0.357 OA
HETATM   26  H   UNK N   1     147.479 150.882 145.920  0.00  0.00     0.218 HD
ENDBRANCH  16  25
TORSDOF 3
ENDMDL
MODEL 3
REMARK VINA RESULT:      -7.3     18.794     21.102
REMARK  3 active torsions:
REMARK  status: ('A' for Active; 'I' for Inactive)
REMARK    1  A    between atoms: O_3  and  C_18 
REMARK    2  A    between atoms: O_4  and  C_21 
REMARK    3  A    between atoms: C_20  and  C_22 
ROOT
HETATM    1  O   UNK N   1     135.900 139.056 153.884  0.00  0.00    -0.310 OA
HETATM    2  O   UNK N   1     138.002 139.728 154.340  0.00  0.00    -0.264 OA
HETATM    3  C   UNK N   1     135.350 141.863 153.464  0.00  0.00     0.019 C 
HETATM    4  C   UNK N   1     136.668 141.170 152.920  0.00  0.00     0.083 C 
HETATM    5  C   UNK N   1     135.607 142.977 154.521  0.00  0.00    -0.043 C 
HETATM    6  C   UNK N   1     134.268 140.763 153.802  0.00  0.00     0.044 C 
HETATM    7  C   UNK N   1     137.890 142.148 152.888  0.00  0.00     0.025 C 
HETATM    8  C   UNK N   1     136.566 144.059 153.886  0.00  0.00     0.009 C 
HETATM    9  C   UNK N   1     134.725 139.394 153.212  0.00  0.00     0.166 C 
HETATM   10  C   UNK N   1     136.176 140.544 151.585  0.00  0.00     0.006 A 
HETATM   11  C   UNK N   1     137.408 143.577 152.669  0.00  0.00     0.002 C 
HETATM   12  C   UNK N   1     135.129 139.615 151.765  0.00  0.00    -0.018 A 
HETATM   13  C   UNK N   1     136.936 139.940 153.786  0.00  0.00     0.273 C 
HETATM   14  C   UNK N   1     136.233 142.393 155.816  0.00  0.00     0.015 C 
HETATM   15  C   UNK N   1     134.282 143.665 154.920  0.00  0.00     0.015 C 
HETATM   16  C   UNK N   1     136.646 140.814 150.281  0.00  0.00     0.107 A 
HETATM   17  C   UNK N   1     134.561 138.944 150.689  0.00  0.00     0.021 A 
HETATM   18  C   UNK N   1     135.026 139.180 149.385  0.00  0.00    -0.018 A 
HETATM   19  C   UNK N   1     136.079 140.114 149.176  0.00  0.00     0.106 A 
ENDROOT
BRANCH  18  20
HETATM   20  C   UNK N   1     134.380 138.418 148.231  0.00  0.00     0.013 C 
HETATM   21  C   UNK N   1     132.883 138.175 148.472  0.00  0.00     0.015 C 
HETATM   22  C   UNK N   1     135.119 137.102 147.945  0.00  0.00     0.015 C 
ENDBRANCH  18  20
BRANCH  19  23
HETATM   23  O   UNK N   1     136.532 140.309 147.917  0.00  0.00    -0.357 OA
HETATM   24  H   UNK N   1     136.142 140.915 147.277  0.00  0.00     0.218 HD
ENDBRANCH  19  23
BRANCH  16  25
HETATM   25  O   UNK N   1     137.609 141.743 150.099  0.00  0.00    -0.357 OA
HETATM   26  H   UNK N   1     138.395 141.835 150.648  0.00  0.00     0.218 HD
ENDBRANCH  16  25
TORSDOF 3
ENDMDL
MODEL 4
REMARK VINA RESULT:      -7.0     20.249     22.567
REMARK  3 active torsions:
REMARK  status: ('A' for Active; 'I' for Inactive)
REMARK    1  A    between atoms: O_3  and  C_18 
REMARK    2  A    between atoms: O_4  and  C_21 
REMARK    3  A    between atoms: C_20  and  C_22 
ROOT
HETATM    1  O   UNK N   1     134.225 138.086 153.620  0.00  0.00    -0.310 OA
HETATM    2  O   UNK N   1     136.465 138.067 153.863  0.00  0.00    -0.264 OA
HETATM    3  C   UNK N   1     134.560 140.880 152.961  0.00  0.00     0.019 C 
HETATM    4  C   UNK N   1     135.530 139.758 152.400  0.00  0.00     0.083 C 
HETATM    5  C   UNK N   1     135.258 141.924 153.881  0.00  0.00    -0.043 C 
HETATM    6  C   UNK N   1     133.221 140.221 153.479  0.00  0.00     0.044 C 
HETATM    7  C   UNK N   1     136.990 140.280 152.189  0.00  0.00     0.025 C 
HETATM    8  C   UNK N   1     136.447 142.585 153.079  0.00  0.00     0.009 C 
HETATM    9  C   UNK N   1     133.160 138.739 152.999  0.00  0.00     0.166 C 
HETATM   10  C   UNK N   1     134.738 139.233 151.170  0.00  0.00     0.006 A 
HETATM   11  C   UNK N   1     136.970 141.769 151.861  0.00  0.00     0.002 C 
HETATM   12  C   UNK N   1     133.472 138.711 151.512  0.00  0.00    -0.018 A 
HETATM   13  C   UNK N   1     135.474 138.574 153.364  0.00  0.00     0.273 C 
HETATM   14  C   UNK N   1     135.788 141.263 155.183  0.00  0.00     0.015 C 
HETATM   15  C   UNK N   1     134.267 143.033 154.299  0.00  0.00     0.015 C 
HETATM   16  C   UNK N   1     135.141 139.239 149.817  0.00  0.00     0.107 A 
HETATM   17  C   UNK N   1     132.619 138.186 150.550  0.00  0.00     0.021 A 
HETATM   18  C   UNK N   1     133.007 138.162 149.200  0.00  0.00    -0.018 A 
HETATM   19  C   UNK N   1     134.277 138.684 148.828  0.00  0.00     0.106 A 
ENDROOT
BRANCH  18  20
HETATM   20  C   UNK N   1     132.044 137.570 148.174  0.00  0.00     0.013 C 
HETATM   21  C   UNK N   1     130.578 137.773 148.582  0.00  0.00     0.015 C 
HETATM   22  C   UNK N   1     132.349 136.089 147.909  0.00  0.00     0.015 C 
ENDBRANCH  18  20
BRANCH  19  23
HETATM   23  O   UNK N   1     134.646 138.630 147.529  0.00  0.00    -0.357 OA
HETATM   24  H   UNK N   1     134.179 138.139 146.843  0.00  0.00     0.218 HD
ENDBRANCH  19  23
BRANCH  16  25
HETATM   25  O   UNK N   1     136.328 139.788 149.479  0.00  0.00    -0.357 OA
HETATM   26  H   UNK N   1     136.474 140.726 149.315  0.00  0.00     0.218 HD
ENDBRANCH  16  25
TORSDOF 3
ENDMDL
MODEL 5
REMARK VINA RESULT:      -6.9     38.475     41.801
REMARK  3 active torsions:
REMARK  status: ('A' for Active; 'I' for Inactive)
REMARK    1  A    between atoms: O_3  and  C_18 
REMARK    2  A    between atoms: O_4  and  C_21 
REMARK    3  A    between atoms: C_20  and  C_22 
ROOT
HETATM    1  O   UNK N   1     130.026 166.544 177.497  0.00  0.00    -0.310 OA
HETATM    2  O   UNK N   1     131.188 168.437 177.881  0.00  0.00    -0.264 OA
HETATM    3  C   UNK N   1     132.522 165.506 176.472  0.00  0.00     0.019 C 
HETATM    4  C   UNK N   1     132.448 166.368 177.801  0.00  0.00     0.083 C 
HETATM    5  C   UNK N   1     133.347 166.167 175.329  0.00  0.00    -0.043 C 
HETATM    6  C   UNK N   1     131.088 164.946 176.117  0.00  0.00     0.044 C 
HETATM    7  C   UNK N   1     133.736 167.229 178.029  0.00  0.00     0.025 C 
HETATM    8  C   UNK N   1     134.803 166.462 175.866  0.00  0.00     0.009 C 
HETATM    9  C   UNK N   1     130.137 165.163 177.333  0.00  0.00     0.166 C 
HETATM   10  C   UNK N   1     132.067 165.297 178.860  0.00  0.00     0.006 A 
HETATM   11  C   UNK N   1     134.945 166.531 177.414  0.00  0.00     0.002 C 
HETATM   12  C   UNK N   1     130.841 164.656 178.580  0.00  0.00    -0.018 A 
HETATM   13  C   UNK N   1     131.187 167.227 177.725  0.00  0.00     0.273 C 
HETATM   14  C   UNK N   1     132.677 167.478 174.836  0.00  0.00     0.015 C 
HETATM   15  C   UNK N   1     133.451 165.218 174.114  0.00  0.00     0.015 C 
HETATM   16  C   UNK N   1     132.799 164.918 180.007  0.00  0.00     0.107 A 
HETATM   17  C   UNK N   1     130.327 163.674 179.416  0.00  0.00     0.021 A 
HETATM   18  C   UNK N   1     131.027 163.296 180.574  0.00  0.00    -0.018 A 
HETATM   19  C   UNK N   1     132.267 163.924 180.878  0.00  0.00     0.106 A 
ENDROOT
BRANCH  18  20
HETATM   20  C   UNK N   1     130.426 162.217 181.471  0.00  0.00     0.013 C 
HETATM   21  C   UNK N   1     129.583 161.212 180.672  0.00  0.00     0.015 C 
HETATM   22  C   UNK N   1     129.616 162.832 182.621  0.00  0.00     0.015 C 
ENDBRANCH  18  20
BRANCH  19  23
HETATM   23  O   UNK N   1     132.915 163.566 182.010  0.00  0.00    -0.357 OA
HETATM   24  H   UNK N   1     133.873 163.523 182.108  0.00  0.00     0.218 HD
ENDBRANCH  19  23
BRANCH  16  25
HETATM   25  O   UNK N   1     134.000 165.489 180.248  0.00  0.00    -0.357 OA
HETATM   26  H   UNK N   1     134.156 166.438 180.304  0.00  0.00     0.218 HD
ENDBRANCH  16  25
TORSDOF 3
ENDMDL
MODEL 6
REMARK VINA RESULT:      -6.9      9.549     12.620
REMARK  3 active torsions:
REMARK  status: ('A' for Active; 'I' for Inactive)
REMARK    1  A    between atoms: O_3  and  C_18 
REMARK    2  A    between atoms: O_4  and  C_21 
REMARK    3  A    between atoms: C_20  and  C_22 
ROOT
HETATM    1  O   UNK N   1     150.078 160.578 153.076  0.00  0.00    -0.310 OA
HETATM    2  O   UNK N   1     152.244 161.126 152.781  0.00  0.00    -0.264 OA
HETATM    3  C   UNK N   1     150.921 157.887 152.441  0.00  0.00     0.019 C 
HETATM    4  C   UNK N   1     151.762 158.831 153.397  0.00  0.00     0.083 C 
HETATM    5  C   UNK N   1     151.662 157.483 151.132  0.00  0.00    -0.043 C 
HETATM    6  C   UNK N   1     149.445 158.433 152.312  0.00  0.00     0.044 C 
HETATM    7  C   UNK N   1     153.301 158.559 153.305  0.00  0.00     0.025 C 
HETATM    8  C   UNK N   1     153.025 156.786 151.522  0.00  0.00     0.009 C 
HETATM    9  C   UNK N   1     149.209 159.534 153.392  0.00  0.00     0.166 C 
HETATM   10  C   UNK N   1     151.047 158.628 154.762  0.00  0.00     0.006 A 
HETATM   11  C   UNK N   1     153.552 157.098 152.952  0.00  0.00     0.002 C 
HETATM   12  C   UNK N   1     149.684 158.992 154.729  0.00  0.00    -0.018 A 
HETATM   13  C   UNK N   1     151.410 160.276 153.047  0.00  0.00     0.273 C 
HETATM   14  C   UNK N   1     151.926 158.718 150.229  0.00  0.00     0.015 C 
HETATM   15  C   UNK N   1     150.814 156.485 150.312  0.00  0.00     0.015 C 
HETATM   16  C   UNK N   1     151.601 158.130 155.961  0.00  0.00     0.107 A 
HETATM   17  C   UNK N   1     148.877 158.890 155.855  0.00  0.00     0.021 A 
HETATM   18  C   UNK N   1     149.413 158.417 157.066  0.00  0.00    -0.018 A 
HETATM   19  C   UNK N   1     150.783 158.041 157.125  0.00  0.00     0.106 A 
ENDROOT
BRANCH  18  20
HETATM   20  C   UNK N   1     148.495 158.326 158.282  0.00  0.00     0.013 C 
HETATM   21  C   UNK N   1     147.073 157.895 157.896  0.00  0.00     0.015 C 
HETATM   22  C   UNK N   1     148.484 159.640 159.075  0.00  0.00     0.015 C 
ENDBRANCH  18  20
BRANCH  19  23
HETATM   23  O   UNK N   1     151.288 157.613 158.303  0.00  0.00    -0.357 OA
HETATM   24  H   UNK N   1     150.857 156.983 158.893  0.00  0.00     0.218 HD
ENDBRANCH  19  23
BRANCH  16  25
HETATM   25  O   UNK N   1     152.891 157.728 155.981  0.00  0.00    -0.357 OA
HETATM   26  H   UNK N   1     153.396 157.537 156.779  0.00  0.00     0.218 HD
ENDBRANCH  16  25
TORSDOF 3
ENDMDL
MODEL 7
REMARK VINA RESULT:      -6.9     40.292     43.482
REMARK  3 active torsions:
REMARK  status: ('A' for Active; 'I' for Inactive)
REMARK    1  A    between atoms: O_3  and  C_18 
REMARK    2  A    between atoms: O_4  and  C_21 
REMARK    3  A    between atoms: C_20  and  C_22 
ROOT
HETATM    1  O   UNK N   1     154.012 142.466 185.335  0.00  0.00    -0.310 OA
HETATM    2  O   UNK N   1     152.585 140.836 184.714  0.00  0.00    -0.264 OA
HETATM    3  C   UNK N   1     151.733 143.613 186.694  0.00  0.00     0.019 C 
HETATM    4  C   UNK N   1     152.048 142.060 186.737  0.00  0.00     0.083 C 
HETATM    5  C   UNK N   1     150.385 143.971 186.003  0.00  0.00    -0.043 C 
HETATM    6  C   UNK N   1     153.023 144.409 186.249  0.00  0.00     0.044 C 
HETATM    7  C   UNK N   1     150.751 141.188 186.833  0.00  0.00     0.025 C 
HETATM    8  C   UNK N   1     149.221 143.202 186.743  0.00  0.00     0.009 C 
HETATM    9  C   UNK N   1     154.255 143.454 186.291  0.00  0.00     0.166 C 
HETATM   10  C   UNK N   1     153.094 141.974 187.884  0.00  0.00     0.006 A 
HETATM   11  C   UNK N   1     149.659 141.957 187.569  0.00  0.00     0.002 C 
HETATM   12  C   UNK N   1     154.253 142.739 187.630  0.00  0.00    -0.018 A 
HETATM   13  C   UNK N   1     152.879 141.722 185.500  0.00  0.00     0.273 C 
HETATM   14  C   UNK N   1     150.407 143.596 184.496  0.00  0.00     0.015 C 
HETATM   15  C   UNK N   1     150.111 145.489 186.096  0.00  0.00     0.015 C 
HETATM   16  C   UNK N   1     152.992 141.250 189.092  0.00  0.00     0.107 A 
HETATM   17  C   UNK N   1     155.305 142.782 188.536  0.00  0.00     0.021 A 
HETATM   18  C   UNK N   1     155.236 142.053 189.735  0.00  0.00    -0.018 A 
HETATM   19  C   UNK N   1     154.077 141.277 190.015  0.00  0.00     0.106 A 
ENDROOT
BRANCH  18  20
HETATM   20  C   UNK N   1     156.417 142.123 190.700  0.00  0.00     0.013 C 
HETATM   21  C   UNK N   1     156.816 143.572 191.014  0.00  0.00     0.015 C 
HETATM   22  C   UNK N   1     157.614 141.315 190.178  0.00  0.00     0.015 C 
ENDBRANCH  18  20
BRANCH  19  23
HETATM   23  O   UNK N   1     154.038 140.562 191.162  0.00  0.00    -0.357 OA
HETATM   24  H   UNK N   1     154.024 139.599 191.212  0.00  0.00     0.218 HD
ENDBRANCH  19  23
BRANCH  16  25
HETATM   25  O   UNK N   1     151.861 140.562 189.362  0.00  0.00    -0.357 OA
HETATM   26  H   UNK N   1     151.827 139.724 189.834  0.00  0.00     0.218 HD
ENDBRANCH  16  25
TORSDOF 3
ENDMDL
MODEL 8
REMARK VINA RESULT:      -6.9     30.261     32.036
REMARK  3 active torsions:
REMARK  status: ('A' for Active; 'I' for Inactive)
REMARK    1  A    between atoms: O_3  and  C_18 
REMARK    2  A    between atoms: O_4  and  C_21 
REMARK    3  A    between atoms: C_20  and  C_22 
ROOT
HETATM    1  O   UNK N   1     161.457 130.168 121.497  0.00  0.00    -0.310 OA
HETATM    2  O   UNK N   1     162.067 132.189 122.286  0.00  0.00    -0.264 OA
HETATM    3  C   UNK N   1     163.707 129.165 123.009  0.00  0.00     0.019 C 
HETATM    4  C   UNK N   1     162.715 130.253 123.594  0.00  0.00     0.083 C 
HETATM    5  C   UNK N   1     165.173 129.663 122.841  0.00  0.00    -0.043 C 
HETATM    6  C   UNK N   1     163.034 128.432 121.782  0.00  0.00     0.044 C 
HETATM    7  C   UNK N   1     163.425 131.245 124.576  0.00  0.00     0.025 C 
HETATM    8  C   UNK N   1     165.692 130.174 124.242  0.00  0.00     0.009 C 
HETATM    9  C   UNK N   1     161.519 128.795 121.735  0.00  0.00     0.166 C 
HETATM   10  C   UNK N   1     161.551 129.374 124.131  0.00  0.00     0.006 A 
HETATM   11  C   UNK N   1     164.587 130.546 125.273  0.00  0.00     0.002 C 
HETATM   12  C   UNK N   1     160.942 128.593 123.125  0.00  0.00    -0.018 A 
HETATM   13  C   UNK N   1     162.070 130.975 122.412  0.00  0.00     0.273 C 
HETATM   14  C   UNK N   1     165.265 130.798 121.785  0.00  0.00     0.015 C 
HETATM   15  C   UNK N   1     166.088 128.514 122.363  0.00  0.00     0.015 C 
HETATM   16  C   UNK N   1     161.081 129.280 125.459  0.00  0.00     0.107 A 
HETATM   17  C   UNK N   1     159.877 127.747 123.409  0.00  0.00     0.021 A 
HETATM   18  C   UNK N   1     159.378 127.654 124.719  0.00  0.00    -0.018 A 
HETATM   19  C   UNK N   1     159.977 128.428 125.752  0.00  0.00     0.106 A 
ENDROOT
BRANCH  18  20
HETATM   20  C   UNK N   1     158.203 126.718 124.987  0.00  0.00     0.013 C 
HETATM   21  C   UNK N   1     158.651 125.253 125.099  0.00  0.00     0.015 C 
HETATM   22  C   UNK N   1     157.102 126.885 123.931  0.00  0.00     0.015 C 
ENDBRANCH  18  20
BRANCH  19  23
HETATM   23  O   UNK N   1     159.468 128.346 127.001  0.00  0.00    -0.357 OA
HETATM   24  H   UNK N   1     159.454 127.547 127.540  0.00  0.00     0.218 HD
ENDBRANCH  19  23
BRANCH  16  25
HETATM   25  O   UNK N   1     161.698 129.984 126.434  0.00  0.00    -0.357 OA
HETATM   26  H   UNK N   1     161.968 130.905 126.361  0.00  0.00     0.218 HD
ENDBRANCH  16  25
TORSDOF 3
ENDMDL
MODEL 9
REMARK VINA RESULT:      -6.8      7.772     11.464
REMARK  3 active torsions:
REMARK  status: ('A' for Active; 'I' for Inactive)
REMARK    1  A    between atoms: O_3  and  C_18 
REMARK    2  A    between atoms: O_4  and  C_21 
REMARK    3  A    between atoms: C_20  and  C_22 
ROOT
HETATM    1  O   UNK N   1     151.241 158.883 150.733  0.00  0.00    -0.310 OA
HETATM    2  O   UNK N   1     150.773 160.506 152.224  0.00  0.00    -0.264 OA
HETATM    3  C   UNK N   1     152.536 157.553 152.949  0.00  0.00     0.019 C 
HETATM    4  C   UNK N   1     151.133 158.275 153.101  0.00  0.00     0.083 C 
HETATM    5  C   UNK N   1     153.672 158.180 153.810  0.00  0.00    -0.043 C 
HETATM    6  C   UNK N   1     152.835 157.280 151.422  0.00  0.00     0.044 C 
HETATM    7  C   UNK N   1     150.923 158.881 154.530  0.00  0.00     0.025 C 
HETATM    8  C   UNK N   1     153.219 158.172 155.323  0.00  0.00     0.009 C 
HETATM    9  C   UNK N   1     151.537 157.527 150.593  0.00  0.00     0.166 C 
HETATM   10  C   UNK N   1     150.150 157.180 152.601  0.00  0.00     0.006 A 
HETATM   11  C   UNK N   1     151.685 158.058 155.562  0.00  0.00     0.002 C 
HETATM   12  C   UNK N   1     150.397 156.785 151.269  0.00  0.00    -0.018 A 
HETATM   13  C   UNK N   1     151.037 159.335 152.005  0.00  0.00     0.273 C 
HETATM   14  C   UNK N   1     153.993 159.628 153.350  0.00  0.00     0.015 C 
HETATM   15  C   UNK N   1     154.973 157.356 153.679  0.00  0.00     0.015 C 
HETATM   16  C   UNK N   1     149.100 156.569 153.320  0.00  0.00     0.107 A 
HETATM   17  C   UNK N   1     149.618 155.822 150.641  0.00  0.00     0.021 A 
HETATM   18  C   UNK N   1     148.554 155.216 151.329  0.00  0.00    -0.018 A 
HETATM   19  C   UNK N   1     148.285 155.594 152.674  0.00  0.00     0.106 A 
ENDROOT
BRANCH  18  20
HETATM   20  C   UNK N   1     147.717 154.167 150.602  0.00  0.00     0.013 C 
HETATM   21  C   UNK N   1     148.503 153.494 149.467  0.00  0.00     0.015 C 
HETATM   22  C   UNK N   1     146.397 154.760 150.090  0.00  0.00     0.015 C 
ENDBRANCH  18  20
BRANCH  19  23
HETATM   23  O   UNK N   1     147.242 155.020 153.313  0.00  0.00    -0.357 OA
HETATM   24  H   UNK N   1     146.459 154.660 152.881  0.00  0.00     0.218 HD
ENDBRANCH  19  23
BRANCH  16  25
HETATM   25  O   UNK N   1     148.896 156.904 154.613  0.00  0.00    -0.357 OA
HETATM   26  H   UNK N   1     149.407 156.567 155.356  0.00  0.00     0.218 HD
ENDBRANCH  16  25
TORSDOF 3
ENDMDL
