155521642
  -OEChem-08012508303D

 72 75  0     1  0  0  0  0  0999 V2000
    1.0518    0.9093    1.6983 O   0  0  0  0  0  0  0  0  0  0  0  0
   -0.2759   -1.2487   -1.7977 O   0  0  0  0  0  0  0  0  0  0  0  0
   -2.3424   -2.9316   -1.6710 O   0  0  0  0  0  0  0  0  0  0  0  0
    1.7735   -0.1368   -0.2516 N   0  0  0  0  0  0  0  0  0  0  0  0
   -0.5833    2.7281    0.1740 C   0  0  2  0  0  0  0  0  0  0  0  0
   -0.1514    1.3119   -0.3447 C   0  0  2  0  0  0  0  0  0  0  0  0
    0.5060    3.8515    0.0580 C   0  0  0  0  0  0  0  0  0  0  0  0
    0.3882    1.4710   -1.7912 C   0  0  0  0  0  0  0  0  0  0  0  0
    1.0372    3.8857   -1.3957 C   0  0  0  0  0  0  0  0  0  0  0  0
   -1.2435    2.6132    1.5578 C   0  0  0  0  0  0  0  0  0  0  0  0
    1.4849    2.5282   -1.9176 C   0  0  0  0  0  0  0  0  0  0  0  0
   -1.3344    0.3297   -0.2694 C   0  0  0  0  0  0  0  0  0  0  0  0
   -2.5263    1.7929    1.4613 C   0  0  0  0  0  0  0  0  0  0  0  0
    0.9507    0.6901    0.4942 C   0  0  0  0  0  0  0  0  0  0  0  0
   -0.1246    5.2392    0.3368 C   0  0  0  0  0  0  0  0  0  0  0  0
    1.6765    3.6888    1.0467 C   0  0  0  0  0  0  0  0  0  0  0  0
   -2.4138    0.5532    0.6121 C   0  0  0  0  0  0  0  0  0  0  0  0
   -1.3303   -0.8629   -1.0209 C   0  0  0  0  0  0  0  0  0  0  0  0
   -3.4659   -0.3786    0.6823 C   0  0  0  0  0  0  0  0  0  0  0  0
    2.8878   -0.8653    0.3197 C   0  0  0  0  0  0  0  0  0  0  0  0
   -3.4480   -1.5387   -0.0864 C   0  0  0  0  0  0  0  0  0  0  0  0
   -2.3772   -1.7828   -0.9351 C   0  0  0  0  0  0  0  0  0  0  0  0
    4.0097   -0.9836   -0.7195 C   0  0  0  0  0  0  0  0  0  0  0  0
    2.3785   -2.1981    0.8733 C   0  0  0  0  0  0  0  0  0  0  0  0
   -4.5801   -2.5055    0.0215 C   0  0  0  0  0  0  0  0  0  0  0  0
    5.3420   -1.4076   -0.1056 C   0  0  0  0  0  0  0  0  0  0  0  0
    3.4475   -3.1009    1.4900 C   0  0  0  0  0  0  0  0  0  0  0  0
    5.5505   -2.9135    0.0176 C   0  0  0  0  0  0  0  0  0  0  0  0
    4.3476   -3.7491    0.4432 C   0  0  0  0  0  0  0  0  0  0  0  0
   -4.7132   -3.0992    1.4363 C   0  0  0  0  0  0  0  0  0  0  0  0
   -5.9221   -1.8899   -0.4164 C   0  0  0  0  0  0  0  0  0  0  0  0
   -1.3894    3.0572   -0.5049 H   0  0  0  0  0  0  0  0  0  0  0  0
   -0.4574    1.8174   -2.4073 H   0  0  0  0  0  0  0  0  0  0  0  0
    0.7327    0.6007   -2.3451 H   0  0  0  0  0  0  0  0  0  0  0  0
    1.8712    4.5943   -1.4795 H   0  0  0  0  0  0  0  0  0  0  0  0
    0.2494    4.2640   -2.0618 H   0  0  0  0  0  0  0  0  0  0  0  0
   -1.5283    3.6009    1.9355 H   0  0  0  0  0  0  0  0  0  0  0  0
   -0.5936    2.1988    2.3283 H   0  0  0  0  0  0  0  0  0  0  0  0
    2.3994    2.2082   -1.4083 H   0  0  0  0  0  0  0  0  0  0  0  0
    1.7530    2.6339   -2.9763 H   0  0  0  0  0  0  0  0  0  0  0  0
   -3.3169    2.4208    1.0299 H   0  0  0  0  0  0  0  0  0  0  0  0
   -2.8445    1.5218    2.4755 H   0  0  0  0  0  0  0  0  0  0  0  0
   -0.3927    5.3636    1.3907 H   0  0  0  0  0  0  0  0  0  0  0  0
   -1.0280    5.3944   -0.2635 H   0  0  0  0  0  0  0  0  0  0  0  0
    0.5757    6.0461    0.0899 H   0  0  0  0  0  0  0  0  0  0  0  0
    1.3272    3.5777    2.0778 H   0  0  0  0  0  0  0  0  0  0  0  0
    2.3187    4.5785    1.0265 H   0  0  0  0  0  0  0  0  0  0  0  0
    2.3309    2.8499    0.8035 H   0  0  0  0  0  0  0  0  0  0  0  0
    1.4959   -0.4731   -1.1615 H   0  0  0  0  0  0  0  0  0  0  0  0
   -4.2989   -0.1768    1.3525 H   0  0  0  0  0  0  0  0  0  0  0  0
    3.2583   -0.2685    1.1634 H   0  0  0  0  0  0  0  0  0  0  0  0
    4.1578    0.0061   -1.1733 H   0  0  0  0  0  0  0  0  0  0  0  0
    3.7208   -1.6509   -1.5406 H   0  0  0  0  0  0  0  0  0  0  0  0
    1.6271   -1.9903    1.6471 H   0  0  0  0  0  0  0  0  0  0  0  0
    1.8434   -2.7485    0.0877 H   0  0  0  0  0  0  0  0  0  0  0  0
   -4.4113   -3.3587   -0.6468 H   0  0  0  0  0  0  0  0  0  0  0  0
    5.4685   -0.9369    0.8772 H   0  0  0  0  0  0  0  0  0  0  0  0
    6.1558   -1.0126   -0.7274 H   0  0  0  0  0  0  0  0  0  0  0  0
    2.9241   -3.9053    2.0227 H   0  0  0  0  0  0  0  0  0  0  0  0
    4.0337   -2.5615    2.2425 H   0  0  0  0  0  0  0  0  0  0  0  0
   -0.1946   -2.2170   -1.7791 H   0  0  0  0  0  0  0  0  0  0  0  0
    5.9099   -3.3040   -0.9433 H   0  0  0  0  0  0  0  0  0  0  0  0
    6.3699   -3.0822    0.7282 H   0  0  0  0  0  0  0  0  0  0  0  0
    3.7570   -4.0174   -0.4417 H   0  0  0  0  0  0  0  0  0  0  0  0
    4.7279   -4.6978    0.8431 H   0  0  0  0  0  0  0  0  0  0  0  0
   -1.7834   -2.7930   -2.4536 H   0  0  0  0  0  0  0  0  0  0  0  0
   -3.7721   -3.5619    1.7539 H   0  0  0  0  0  0  0  0  0  0  0  0
   -5.4905   -3.8709    1.4570 H   0  0  0  0  0  0  0  0  0  0  0  0
   -4.9806   -2.3389    2.1779 H   0  0  0  0  0  0  0  0  0  0  0  0
   -5.8504   -1.4822   -1.4309 H   0  0  0  0  0  0  0  0  0  0  0  0
   -6.7114   -2.6496   -0.4149 H   0  0  0  0  0  0  0  0  0  0  0  0
   -6.2399   -1.0801    0.2492 H   0  0  0  0  0  0  0  0  0  0  0  0
  1 14  2  0  0  0  0
  2 18  1  0  0  0  0
  2 61  1  0  0  0  0
  3 22  1  0  0  0  0
  3 66  1  0  0  0  0
  4 14  1  0  0  0  0
  4 20  1  0  0  0  0
  4 49  1  0  0  0  0
  5  6  1  0  0  0  0
  5  7  1  0  0  0  0
  5 10  1  0  0  0  0
  5 32  1  0  0  0  0
  6  8  1  0  0  0  0
  6 12  1  0  0  0  0
  6 14  1  0  0  0  0
  7  9  1  0  0  0  0
  7 15  1  0  0  0  0
  7 16  1  0  0  0  0
  8 11  1  0  0  0  0
  8 33  1  0  0  0  0
  8 34  1  0  0  0  0
  9 11  1  0  0  0  0
  9 35  1  0  0  0  0
  9 36  1  0  0  0  0
 10 13  1  0  0  0  0
 10 37  1  0  0  0  0
 10 38  1  0  0  0  0
 11 39  1  0  0  0  0
 11 40  1  0  0  0  0
 12 17  1  0  0  0  0
 12 18  2  0  0  0  0
 13 17  1  0  0  0  0
 13 41  1  0  0  0  0
 13 42  1  0  0  0  0
 15 43  1  0  0  0  0
 15 44  1  0  0  0  0
 15 45  1  0  0  0  0
 16 46  1  0  0  0  0
 16 47  1  0  0  0  0
 16 48  1  0  0  0  0
 17 19  2  0  0  0  0
 18 22  1  0  0  0  0
 19 21  1  0  0  0  0
 19 50  1  0  0  0  0
 20 23  1  0  0  0  0
 20 24  1  0  0  0  0
 20 51  1  0  0  0  0
 21 22  2  0  0  0  0
 21 25  1  0  0  0  0
 23 26  1  0  0  0  0
 23 52  1  0  0  0  0
 23 53  1  0  0  0  0
 24 27  1  0  0  0  0
 24 54  1  0  0  0  0
 24 55  1  0  0  0  0
 25 30  1  0  0  0  0
 25 31  1  0  0  0  0
 25 56  1  0  0  0  0
 26 28  1  0  0  0  0
 26 57  1  0  0  0  0
 26 58  1  0  0  0  0
 27 29  1  0  0  0  0
 27 59  1  0  0  0  0
 27 60  1  0  0  0  0
 28 29  1  0  0  0  0
 28 62  1  0  0  0  0
 28 63  1  0  0  0  0
 29 64  1  0  0  0  0
 29 65  1  0  0  0  0
 30 67  1  0  0  0  0
 30 68  1  0  0  0  0
 30 69  1  0  0  0  0
 31 70  1  0  0  0  0
 31 71  1  0  0  0  0
 31 72  1  0  0  0  0
M  END
> <PUBCHEM_COMPOUND_CID>
155521642

> <PUBCHEM_CONFORMER_RMSD>
0.8

> <PUBCHEM_CONFORMER_DIVERSEORDER>
8
20
14
24
19
3
23
17
7
10
22
13
15
16
5
18
1
21
9
4
2
12
6
11

> <PUBCHEM_MMFF94_PARTIAL_CHARGES>
19
1 -0.57
12 -0.14
13 0.14
14 0.57
17 -0.14
18 0.08
19 -0.15
2 -0.53
20 0.3
21 -0.14
22 0.08
25 0.14
3 -0.53
4 -0.73
49 0.37
50 0.15
6 0.2
61 0.45
66 0.45

> <PUBCHEM_EFFECTIVE_ROTOR_COUNT>
6.6

> <PUBCHEM_PHARMACOPHORE_FEATURES>
10
1 1 acceptor
1 2 donor
1 3 donor
1 4 donor
3 25 30 31 hydrophobe
3 7 15 16 hydrophobe
6 12 17 18 19 21 22 rings
6 5 6 10 12 13 17 rings
6 5 6 7 8 9 11 rings
7 20 23 24 26 27 28 29 rings

> <PUBCHEM_HEAVY_ATOM_COUNT>
31

> <PUBCHEM_ATOM_DEF_STEREO_COUNT>
2

> <PUBCHEM_ATOM_UDEF_STEREO_COUNT>
0

> <PUBCHEM_BOND_DEF_STEREO_COUNT>
0

> <PUBCHEM_BOND_UDEF_STEREO_COUNT>
0

> <PUBCHEM_ISOTOPIC_ATOM_COUNT>
0

> <PUBCHEM_COMPONENT_COUNT>
1

> <PUBCHEM_CACTVS_TAUTO_COUNT>
-1

> <PUBCHEM_CONFORMER_ID>
0945126A00000008

> <PUBCHEM_MMFF94_ENERGY>
108.18

> <PUBCHEM_FEATURE_SELFOVERLAP>
50.794

> <PUBCHEM_SHAPE_FINGERPRINT>
10074138 170 18050275973460324849
10190108 129 16895130599661459387
10759866 29 18051138287557056517
10930396 42 17903041505387939608
11135609 187 17899141787185513236
11315621 246 18195819457907611270
11552529 35 17976256842663424858
11578080 2 18260813917417464212
11763715 3 18116734936521561582
12107183 9 18342187657177993787
12160290 23 17840282451052782390
12553582 1 18340752806645303726
12633257 1 17631453371340931635
12714826 92 18126553527986626290
12788726 201 18119239559015835690
12969540 37 18264203789137858218
13004483 165 18265606598275815136
13009979 54 18340499897215685226
131258 43 18269572644782599438
13140716 1 18340485556346251208
13583140 156 17976823409243430123
13631057 29 18337670807429178834
13955234 65 18050292766972238923
14068700 675 17916567800860486727
14114211 68 17538868166132839133
14863182 85 17977099394502909080
14955137 171 18411426141028692534
15042514 8 18268431226488957287
15219462 58 17683275768899865697
15475509 35 17826813709029433051
15927050 60 17619915392683011958
16728300 4 16886392243667288609
17349148 13 17345753126992327111
1813 80 18261664952438478608
19319366 153 17620481641629368989
20101258 96 18410580552320003482
20691752 17 17547006789988685501
20775530 9 18409438194078032754
21033648 29 16701744839286764115
21120745 212 18338244752160722204
21133410 38 17331421160075668467
21421861 104 18124879207831861425
21716022 299 18115610238905050758
21796203 349 18049760499981117139
22907989 373 18049144584959759140
23559900 14 18336821013631314107
3380486 77 18130800005149470039
376196 1 16191433249305401897
4058900 60 17616829059844904589
4340502 62 17393882191081837819
437815 12 18335973208419664551
4409770 3 17976535014214640725
44880168 125 17202761480543968686
46194498 28 17386563712400758735
469060 322 18187366485479753264
484985 159 17755007601873330982
508706 21 17695064401612933094
563151 40 17113839928928967223
57091435 65 18055076724790000693
6086070 43 18337375090509401775
6442390 28 17039238082259134507
70251023 43 18261958556703500843
7097593 13 18056469784732413143
79837 15 17548695175844255570
86090 222 17313953076941803051
9981440 41 17113819592301493016

> <PUBCHEM_SHAPE_MULTIPOLES>
615.38
9.31
6.43
1.62
1.63
5.35
-0.23
-15.87
1.11
1.57
0.77
-0.2
0.35
-1.42

> <PUBCHEM_SHAPE_SELFOVERLAP>
1305.004

> <PUBCHEM_SHAPE_VOLUME>
338.4

> <PUBCHEM_COORDINATE_TYPE>
2
5
10

$$$$
