16758167
  -OEChem-08012508313D

 52 54  0     1  0  0  0  0  0999 V2000
    1.0588    1.1050    2.1693 O   0  0  0  0  0  0  0  0  0  0  0  0
    1.9983    2.5203    0.6495 O   0  0  0  0  0  0  0  0  0  0  0  0
   -0.7481    2.4931   -0.3626 O   0  0  0  0  0  0  0  0  0  0  0  0
   -3.4208    2.1341   -0.3530 O   0  0  0  0  0  0  0  0  0  0  0  0
    2.0064   -0.9258    0.3811 C   0  0  2  0  0  0  0  0  0  0  0  0
    1.1820    0.3419   -0.0649 C   0  0  1  0  0  0  0  0  0  0  0  0
    3.5568   -0.8285    0.0827 C   0  0  0  0  0  0  0  0  0  0  0  0
    1.5733    0.7957   -1.4942 C   0  0  0  0  0  0  0  0  0  0  0  0
    3.8073   -0.3751   -1.3703 C   0  0  0  0  0  0  0  0  0  0  0  0
    1.3657   -2.1895   -0.2361 C   0  0  0  0  0  0  0  0  0  0  0  0
    3.0742    0.9078   -1.7339 C   0  0  0  0  0  0  0  0  0  0  0  0
   -0.3430    0.1198   -0.0501 C   0  0  0  0  0  0  0  0  0  0  0  0
   -0.0575   -2.3808    0.2693 C   0  0  0  0  0  0  0  0  0  0  0  0
    4.2517    0.1473    1.0644 C   0  0  0  0  0  0  0  0  0  0  0  0
    4.2705   -2.1877    0.2864 C   0  0  0  0  0  0  0  0  0  0  0  0
   -0.9076   -1.1593    0.0882 C   0  0  0  0  0  0  0  0  0  0  0  0
    1.4689    1.4541    0.9255 C   0  0  0  0  0  0  0  0  0  0  0  0
   -1.2174    1.2172   -0.2084 C   0  0  0  0  0  0  0  0  0  0  0  0
   -2.3057   -1.3125    0.1050 C   0  0  0  0  0  0  0  0  0  0  0  0
   -3.1481   -0.2140   -0.0428 C   0  0  0  0  0  0  0  0  0  0  0  0
   -2.6031    1.0526   -0.2037 C   0  0  0  0  0  0  0  0  0  0  0  0
   -4.6266   -0.4184   -0.0274 C   0  0  0  0  0  0  0  0  0  0  0  0
   -5.1271   -0.9876    1.3131 C   0  0  0  0  0  0  0  0  0  0  0  0
   -5.1088   -1.3095   -1.1870 C   0  0  0  0  0  0  0  0  0  0  0  0
    1.9114   -1.0568    1.4693 H   0  0  0  0  0  0  0  0  0  0  0  0
    1.1311    1.7649   -1.7529 H   0  0  0  0  0  0  0  0  0  0  0  0
    1.1650    0.0851   -2.2265 H   0  0  0  0  0  0  0  0  0  0  0  0
    3.4933   -1.1649   -2.0652 H   0  0  0  0  0  0  0  0  0  0  0  0
    4.8819   -0.2310   -1.5416 H   0  0  0  0  0  0  0  0  0  0  0  0
    1.9156   -3.0945    0.0378 H   0  0  0  0  0  0  0  0  0  0  0  0
    1.3728   -2.1302   -1.3308 H   0  0  0  0  0  0  0  0  0  0  0  0
    3.2450    1.1211   -2.7965 H   0  0  0  0  0  0  0  0  0  0  0  0
    3.4974    1.7596   -1.1939 H   0  0  0  0  0  0  0  0  0  0  0  0
   -0.0400   -2.6356    1.3364 H   0  0  0  0  0  0  0  0  0  0  0  0
   -0.5029   -3.2297   -0.2640 H   0  0  0  0  0  0  0  0  0  0  0  0
    3.9994   -0.0948    2.1029 H   0  0  0  0  0  0  0  0  0  0  0  0
    5.3430    0.0810    0.9732 H   0  0  0  0  0  0  0  0  0  0  0  0
    4.0099    1.1943    0.8922 H   0  0  0  0  0  0  0  0  0  0  0  0
    4.0428   -2.6079    1.2724 H   0  0  0  0  0  0  0  0  0  0  0  0
    3.9887   -2.9204   -0.4768 H   0  0  0  0  0  0  0  0  0  0  0  0
    5.3596   -2.0798    0.2161 H   0  0  0  0  0  0  0  0  0  0  0  0
   -2.7212   -2.3099    0.2334 H   0  0  0  0  0  0  0  0  0  0  0  0
    1.2384    1.8115    2.8256 H   0  0  0  0  0  0  0  0  0  0  0  0
   -5.1402    0.5425   -0.1547 H   0  0  0  0  0  0  0  0  0  0  0  0
   -1.3633    2.9962   -0.9217 H   0  0  0  0  0  0  0  0  0  0  0  0
   -2.9526    2.9349   -0.0651 H   0  0  0  0  0  0  0  0  0  0  0  0
   -4.7478   -1.9983    1.4982 H   0  0  0  0  0  0  0  0  0  0  0  0
   -6.2214   -1.0366    1.3245 H   0  0  0  0  0  0  0  0  0  0  0  0
   -4.8107   -0.3520    2.1477 H   0  0  0  0  0  0  0  0  0  0  0  0
   -4.7282   -2.3333   -1.1047 H   0  0  0  0  0  0  0  0  0  0  0  0
   -4.7797   -0.9054   -2.1509 H   0  0  0  0  0  0  0  0  0  0  0  0
   -6.2029   -1.3623   -1.2011 H   0  0  0  0  0  0  0  0  0  0  0  0
  1 17  1  0  0  0  0
  1 43  1  0  0  0  0
  2 17  2  0  0  0  0
  3 18  1  0  0  0  0
  3 45  1  0  0  0  0
  4 21  1  0  0  0  0
  4 46  1  0  0  0  0
  5  6  1  0  0  0  0
  5  7  1  0  0  0  0
  5 10  1  0  0  0  0
  5 25  1  0  0  0  0
  6  8  1  0  0  0  0
  6 12  1  0  0  0  0
  6 17  1  0  0  0  0
  7  9  1  0  0  0  0
  7 14  1  0  0  0  0
  7 15  1  0  0  0  0
  8 11  1  0  0  0  0
  8 26  1  0  0  0  0
  8 27  1  0  0  0  0
  9 11  1  0  0  0  0
  9 28  1  0  0  0  0
  9 29  1  0  0  0  0
 10 13  1  0  0  0  0
 10 30  1  0  0  0  0
 10 31  1  0  0  0  0
 11 32  1  0  0  0  0
 11 33  1  0  0  0  0
 12 16  1  0  0  0  0
 12 18  2  0  0  0  0
 13 16  1  0  0  0  0
 13 34  1  0  0  0  0
 13 35  1  0  0  0  0
 14 36  1  0  0  0  0
 14 37  1  0  0  0  0
 14 38  1  0  0  0  0
 15 39  1  0  0  0  0
 15 40  1  0  0  0  0
 15 41  1  0  0  0  0
 16 19  2  0  0  0  0
 18 21  1  0  0  0  0
 19 20  1  0  0  0  0
 19 42  1  0  0  0  0
 20 21  2  0  0  0  0
 20 22  1  0  0  0  0
 22 23  1  0  0  0  0
 22 24  1  0  0  0  0
 22 44  1  0  0  0  0
 23 47  1  0  0  0  0
 23 48  1  0  0  0  0
 23 49  1  0  0  0  0
 24 50  1  0  0  0  0
 24 51  1  0  0  0  0
 24 52  1  0  0  0  0
M  END
> <PUBCHEM_COMPOUND_CID>
16758167

> <PUBCHEM_CONFORMER_RMSD>
0.6

> <PUBCHEM_CONFORMER_DIVERSEORDER>
1
16
26
15
23
20
10
4
11
27
17
13
14
2
19
24
3
18
7
9
22
12
25
5
21
8
6

> <PUBCHEM_MMFF94_PARTIAL_CHARGES>
18
1 -0.65
12 -0.14
13 0.14
16 -0.14
17 0.66
18 0.08
19 -0.15
2 -0.57
20 -0.14
21 0.08
22 0.14
3 -0.53
4 -0.53
42 0.15
43 0.5
45 0.45
46 0.45
6 0.2

> <PUBCHEM_EFFECTIVE_ROTOR_COUNT>
3.2

> <PUBCHEM_PHARMACOPHORE_FEATURES>
10
1 1 acceptor
1 2 acceptor
1 3 donor
1 4 donor
3 1 2 17 anion
3 22 23 24 hydrophobe
3 7 14 15 hydrophobe
6 12 16 18 19 20 21 rings
6 5 6 10 12 13 16 rings
6 5 6 7 8 9 11 rings

> <PUBCHEM_HEAVY_ATOM_COUNT>
24

> <PUBCHEM_ATOM_DEF_STEREO_COUNT>
1

> <PUBCHEM_ATOM_UDEF_STEREO_COUNT>
1

> <PUBCHEM_BOND_DEF_STEREO_COUNT>
0

> <PUBCHEM_BOND_UDEF_STEREO_COUNT>
0

> <PUBCHEM_ISOTOPIC_ATOM_COUNT>
0

> <PUBCHEM_COMPONENT_COUNT>
1

> <PUBCHEM_CACTVS_TAUTO_COUNT>
53

> <PUBCHEM_CONFORMER_ID>
00FFB59700000001

> <PUBCHEM_MMFF94_ENERGY>
82.9339

> <PUBCHEM_FEATURE_SELFOVERLAP>
50.863

> <PUBCHEM_SHAPE_FINGERPRINT>
10062212 137 18335979757906907551
10366900 7 18408890659152263347
10863032 1 17822588186752854974
10967382 1 18410291457923609710
11089746 13 17846777374493394353
11578080 2 17388505347194260764
12035758 1 18271231824855581258
12236239 1 17458344147930156716
12403259 226 18410847746483300053
12553582 1 18410016576402239023
12596599 1 17489599995117175231
12633257 1 17775014504931550707
13009979 54 18189343372615227772
13140716 1 18266177425199738275
13224815 77 18410288121240442511
13862211 1 18410005529177238979
14115302 16 18261116300431406662
14787075 74 18272081730106018370
14863182 85 18271814493004657206
15196674 1 18337389340261128702
15209289 33 18342462525893486163
15848702 151 17489593367929792751
16752209 62 18408605842231904423
16945 1 18409454700043006958
17349148 13 18260548900728453207
17804303 29 18410573950802275287
18186145 218 18131634512878373931
19591789 44 18410013238843748555
200 152 18409162208580755351
20028762 73 18059291088915688847
20691752 17 18190446341449057847
20905425 154 18124033429723501390
21267235 1 18262248741336336894
22182313 1 18264186123832212565
2334 1 17978511163021805318
23402539 116 18336822000808868279
23419403 2 15526228151774848754
23493267 7 17385443220036751473
23559900 14 18335984288960241964
2748010 2 18051133888766870178
296302 2 11312051050096207119
3286 77 18343577447615870293
335352 9 18120935010098051455
350125 39 18409170983104014721
5104073 3 18337669707120284730
5895379 119 15050640160783904379
7495541 125 18335988656999997843
9709674 26 18336553711519445263
9981440 41 16886127734128713348

> <PUBCHEM_SHAPE_MULTIPOLES>
470.43
9.15
2.44
1.32
6.95
0.22
-0.03
-3.04
0.35
-0.42
-0.14
-0.61
0.31
0.02

> <PUBCHEM_SHAPE_SELFOVERLAP>
1011.779

> <PUBCHEM_SHAPE_VOLUME>
257.9

> <PUBCHEM_COORDINATE_TYPE>
2
5
10

$$$$
