155542101
  -OEChem-08012508303D

 55 57  0     1  0  0  0  0  0999 V2000
   -2.4165    1.9363    0.8860 O   0  0  0  0  0  0  0  0  0  0  0  0
    0.8108    2.4010   -0.8537 O   0  0  0  0  0  0  0  0  0  0  0  0
    3.4538    2.0223   -0.8264 O   0  0  0  0  0  0  0  0  0  0  0  0
   -0.6131    0.9132    1.9438 N   0  0  0  0  0  0  0  0  0  0  0  0
   -0.7716    1.6335    3.1099 N   0  0  0  0  0  0  0  0  0  0  0  0
   -1.9349   -1.0596   -0.2767 C   0  0  2  0  0  0  0  0  0  0  0  0
   -1.1493    0.2889   -0.3210 C   0  0  2  0  0  0  0  0  0  0  0  0
   -3.4994   -0.8938   -0.2283 C   0  0  0  0  0  0  0  0  0  0  0  0
   -1.5694    1.0600   -1.6081 C   0  0  0  0  0  0  0  0  0  0  0  0
   -3.9395    0.3988   -0.9659 C   0  0  0  0  0  0  0  0  0  0  0  0
   -1.3644   -1.9992    0.7962 C   0  0  0  0  0  0  0  0  0  0  0  0
   -2.9926    0.7677   -2.0993 C   0  0  0  0  0  0  0  0  0  0  0  0
    0.3709    0.0715   -0.2816 C   0  0  0  0  0  0  0  0  0  0  0  0
    0.0828   -2.3524    0.4695 C   0  0  0  0  0  0  0  0  0  0  0  0
   -4.0797   -0.8585    1.2011 C   0  0  0  0  0  0  0  0  0  0  0  0
   -4.1429   -2.1098   -0.9412 C   0  0  0  0  0  0  0  0  0  0  0  0
    0.9310   -1.1578    0.1210 C   0  0  0  0  0  0  0  0  0  0  0  0
   -1.4833    1.1368    0.8939 C   0  0  0  0  0  0  0  0  0  0  0  0
    1.2444    1.1352   -0.5874 C   0  0  0  0  0  0  0  0  0  0  0  0
    2.3286   -1.3089    0.1578 C   0  0  0  0  0  0  0  0  0  0  0  0
    3.1721   -0.2493   -0.1670 C   0  0  0  0  0  0  0  0  0  0  0  0
    2.6295    0.9751   -0.5349 C   0  0  0  0  0  0  0  0  0  0  0  0
    4.6507   -0.4476   -0.1064 C   0  0  0  0  0  0  0  0  0  0  0  0
    5.1406   -1.5211   -1.0959 C   0  0  0  0  0  0  0  0  0  0  0  0
    5.1412   -0.7822    1.3145 C   0  0  0  0  0  0  0  0  0  0  0  0
   -1.7141   -1.5545   -1.2378 H   0  0  0  0  0  0  0  0  0  0  0  0
   -0.8905    0.8277   -2.4398 H   0  0  0  0  0  0  0  0  0  0  0  0
   -1.5124    2.1453   -1.4648 H   0  0  0  0  0  0  0  0  0  0  0  0
   -4.0985    1.2444   -0.2959 H   0  0  0  0  0  0  0  0  0  0  0  0
   -4.9350    0.2392   -1.4038 H   0  0  0  0  0  0  0  0  0  0  0  0
   -1.9379   -2.9323    0.8375 H   0  0  0  0  0  0  0  0  0  0  0  0
   -1.4309   -1.5568    1.7952 H   0  0  0  0  0  0  0  0  0  0  0  0
   -3.3785    1.6400   -2.6401 H   0  0  0  0  0  0  0  0  0  0  0  0
   -2.9609   -0.0499   -2.8301 H   0  0  0  0  0  0  0  0  0  0  0  0
    0.1047   -3.0443   -0.3821 H   0  0  0  0  0  0  0  0  0  0  0  0
    0.5140   -2.8784    1.3300 H   0  0  0  0  0  0  0  0  0  0  0  0
   -5.1608   -0.6761    1.1755 H   0  0  0  0  0  0  0  0  0  0  0  0
   -3.6366   -0.0768    1.8208 H   0  0  0  0  0  0  0  0  0  0  0  0
   -3.9319   -1.8117    1.7203 H   0  0  0  0  0  0  0  0  0  0  0  0
   -5.2371   -2.0434   -0.9300 H   0  0  0  0  0  0  0  0  0  0  0  0
   -3.8288   -2.1737   -1.9887 H   0  0  0  0  0  0  0  0  0  0  0  0
   -3.8694   -3.0519   -0.4545 H   0  0  0  0  0  0  0  0  0  0  0  0
    2.7432   -2.2716    0.4492 H   0  0  0  0  0  0  0  0  0  0  0  0
    0.0814    0.1780    1.9852 H   0  0  0  0  0  0  0  0  0  0  0  0
    5.1663    0.4778   -0.3911 H   0  0  0  0  0  0  0  0  0  0  0  0
    0.0805    2.6121   -0.2504 H   0  0  0  0  0  0  0  0  0  0  0  0
    0.1388    2.0309    3.3377 H   0  0  0  0  0  0  0  0  0  0  0  0
   -0.9779    0.9610    3.8474 H   0  0  0  0  0  0  0  0  0  0  0  0
    2.9038    2.7910   -1.0567 H   0  0  0  0  0  0  0  0  0  0  0  0
    4.7594   -2.5167   -0.8447 H   0  0  0  0  0  0  0  0  0  0  0  0
    4.8182   -1.2855   -2.1163 H   0  0  0  0  0  0  0  0  0  0  0  0
    6.2348   -1.5745   -1.0933 H   0  0  0  0  0  0  0  0  0  0  0  0
    4.7593   -1.7471    1.6648 H   0  0  0  0  0  0  0  0  0  0  0  0
    6.2353   -0.8286    1.3418 H   0  0  0  0  0  0  0  0  0  0  0  0
    4.8196   -0.0149    2.0276 H   0  0  0  0  0  0  0  0  0  0  0  0
  1 18  2  0  0  0  0
  2 19  1  0  0  0  0
  2 46  1  0  0  0  0
  3 22  1  0  0  0  0
  3 49  1  0  0  0  0
  4  5  1  0  0  0  0
  4 18  1  0  0  0  0
  4 44  1  0  0  0  0
  5 47  1  0  0  0  0
  5 48  1  0  0  0  0
  6  7  1  0  0  0  0
  6  8  1  0  0  0  0
  6 11  1  0  0  0  0
  6 26  1  0  0  0  0
  7  9  1  0  0  0  0
  7 13  1  0  0  0  0
  7 18  1  0  0  0  0
  8 10  1  0  0  0  0
  8 15  1  0  0  0  0
  8 16  1  0  0  0  0
  9 12  1  0  0  0  0
  9 27  1  0  0  0  0
  9 28  1  0  0  0  0
 10 12  1  0  0  0  0
 10 29  1  0  0  0  0
 10 30  1  0  0  0  0
 11 14  1  0  0  0  0
 11 31  1  0  0  0  0
 11 32  1  0  0  0  0
 12 33  1  0  0  0  0
 12 34  1  0  0  0  0
 13 17  1  0  0  0  0
 13 19  2  0  0  0  0
 14 17  1  0  0  0  0
 14 35  1  0  0  0  0
 14 36  1  0  0  0  0
 15 37  1  0  0  0  0
 15 38  1  0  0  0  0
 15 39  1  0  0  0  0
 16 40  1  0  0  0  0
 16 41  1  0  0  0  0
 16 42  1  0  0  0  0
 17 20  2  0  0  0  0
 19 22  1  0  0  0  0
 20 21  1  0  0  0  0
 20 43  1  0  0  0  0
 21 22  2  0  0  0  0
 21 23  1  0  0  0  0
 23 24  1  0  0  0  0
 23 25  1  0  0  0  0
 23 45  1  0  0  0  0
 24 50  1  0  0  0  0
 24 51  1  0  0  0  0
 24 52  1  0  0  0  0
 25 53  1  0  0  0  0
 25 54  1  0  0  0  0
 25 55  1  0  0  0  0
M  END
> <PUBCHEM_COMPOUND_CID>
155542101

> <PUBCHEM_CONFORMER_RMSD>
0.8

> <PUBCHEM_CONFORMER_DIVERSEORDER>
1
4
2
3

> <PUBCHEM_MMFF94_PARTIAL_CHARGES>
21
1 -0.57
13 -0.14
14 0.14
17 -0.14
18 0.57
19 0.08
2 -0.53
20 -0.15
21 -0.14
22 0.08
23 0.14
3 -0.53
4 -0.42
43 0.15
44 0.37
46 0.45
47 0.36
48 0.36
49 0.45
5 -0.73
7 0.2

> <PUBCHEM_EFFECTIVE_ROTOR_COUNT>
4.2

> <PUBCHEM_PHARMACOPHORE_FEATURES>
10
1 1 acceptor
1 2 donor
1 3 donor
1 4 donor
1 5 donor
3 23 24 25 hydrophobe
3 8 15 16 hydrophobe
6 13 17 19 20 21 22 rings
6 6 7 11 13 14 17 rings
6 6 7 8 9 10 12 rings

> <PUBCHEM_HEAVY_ATOM_COUNT>
25

> <PUBCHEM_ATOM_DEF_STEREO_COUNT>
2

> <PUBCHEM_ATOM_UDEF_STEREO_COUNT>
0

> <PUBCHEM_BOND_DEF_STEREO_COUNT>
0

> <PUBCHEM_BOND_UDEF_STEREO_COUNT>
0

> <PUBCHEM_ISOTOPIC_ATOM_COUNT>
0

> <PUBCHEM_COMPONENT_COUNT>
1

> <PUBCHEM_CACTVS_TAUTO_COUNT>
-1

> <PUBCHEM_CONFORMER_ID>
0945625500000001

> <PUBCHEM_MMFF94_ENERGY>
99.8971

> <PUBCHEM_FEATURE_SELFOVERLAP>
52.304

> <PUBCHEM_SHAPE_FINGERPRINT>
10863032 1 18114455700134983591
11315181 36 18341892979402996034
11578080 2 18057579101823806385
12166972 35 18411697699711374088
12236239 1 18131069294834359621
12403259 226 18113893918122815573
12403259 415 18113616798216588788
12403814 3 18040997392850313679
12507557 5 18333725815125899308
12553582 1 18188781535495932630
12592029 89 17894625920477073027
12596599 1 18271260321720938276
12788726 201 17844834596627363561
12916754 54 18334860528089375220
13140716 1 18333735732453325240
13224815 77 18272650173085182330
13288520 33 18336547132088087638
13296909 8 17489588905406063552
13944108 23 15298256492887944269
14142880 1 18266743485004659985
14178342 30 18269558234840091434
14289901 80 16773506686656492174
14713325 29 17968097456957541589
14787075 74 17916858153307504760
15163728 17 12830305024396608319
15196674 1 18260545666496442007
15209289 33 18411706469322500778
15238133 3 17775018873076782601
15309172 13 18187934932479434810
15375462 478 17846501426211081164
15420108 30 17334511410133867288
15848702 151 18200881660717294166
16945 1 18265905837627587121
17349148 13 18342457028467287286
17980427 23 18059859467517425816
18186145 218 18408038511358905460
18219364 16 18114473261987289872
18927931 339 16988847142346311884
192875 21 18343301470408483408
19591789 44 18187081797097553518
19862831 5 18409163311838633302
19930381 70 18046625874288185909
200 152 18272085011028554895
20028762 73 18341894151043955687
20775438 99 16904927192319671255
21267235 1 18335428975358692902
21304303 282 17556288463202242977
22182313 1 17969486255638015548
22907989 373 14346381033085145891
23175994 123 18130784577194120705
23402539 116 17917991655011198142
23419403 2 17914871340022866001
23493267 7 17168130261682080499
23559900 14 18271241737877820792
335352 9 18260261928167003135
350125 39 18260835898953829469
5104073 3 18334013929726606193
9709674 26 18189055459245267718
9981440 41 16667972549455592436

> <PUBCHEM_SHAPE_MULTIPOLES>
486.92
8.86
2.31
1.76
7.32
0.02
-1.06
3.06
1.7
-0.29
0.04
-0.95
-0.76
-0.17

> <PUBCHEM_SHAPE_SELFOVERLAP>
1044.805

> <PUBCHEM_SHAPE_VOLUME>
266.7

> <PUBCHEM_COORDINATE_TYPE>
2
5
10

$$$$
