13654835
  -OEChem-08012508303D

 54 56  0     1  0  0  0  0  0999 V2000
    1.1977   -0.3477    2.2039 O   0  0  0  0  0  0  0  0  0  0  0  0
    1.9931   -2.2757    1.2839 O   0  0  0  0  0  0  0  0  0  0  0  0
   -3.3936   -1.9608   -0.5659 O   0  0  0  0  0  0  0  0  0  0  0  0
    2.1499    0.8462   -0.2702 C   0  0  2  0  0  0  0  0  0  0  0  0
    1.2816   -0.4467   -0.1585 C   0  0  2  0  0  0  0  0  0  0  0  0
    3.6997    0.5937   -0.1611 C   0  0  0  0  0  0  0  0  0  0  0  0
    1.6739   -1.4036   -1.3239 C   0  0  0  0  0  0  0  0  0  0  0  0
    4.0694   -0.8096   -0.7116 C   0  0  0  0  0  0  0  0  0  0  0  0
    1.6216    1.9515    0.6564 C   0  0  0  0  0  0  0  0  0  0  0  0
    3.1215   -1.2668   -1.8114 C   0  0  0  0  0  0  0  0  0  0  0  0
   -0.2223   -0.1346   -0.1858 C   0  0  0  0  0  0  0  0  0  0  0  0
    0.2054    2.3452    0.2504 C   0  0  0  0  0  0  0  0  0  0  0  0
    4.4309    1.6635   -1.0105 C   0  0  0  0  0  0  0  0  0  0  0  0
    4.2525    0.7122    1.2747 C   0  0  0  0  0  0  0  0  0  0  0  0
   -0.7105    1.1686    0.0389 C   0  0  0  0  0  0  0  0  0  0  0  0
    1.5405   -1.1468    1.1641 C   0  0  0  0  0  0  0  0  0  0  0  0
   -1.1560   -1.1746   -0.3729 C   0  0  0  0  0  0  0  0  0  0  0  0
   -2.0961    1.4073    0.0200 C   0  0  0  0  0  0  0  0  0  0  0  0
   -2.9991    0.3672   -0.1860 C   0  0  0  0  0  0  0  0  0  0  0  0
   -2.5289   -0.9255   -0.3776 C   0  0  0  0  0  0  0  0  0  0  0  0
   -4.4631    0.6586   -0.1922 C   0  0  0  0  0  0  0  0  0  0  0  0
   -4.8727    1.6155   -1.3287 C   0  0  0  0  0  0  0  0  0  0  0  0
   -4.9653    1.2034    1.1593 C   0  0  0  0  0  0  0  0  0  0  0  0
   -3.8301   -2.6405    0.6047 C   0  0  0  0  0  0  0  0  0  0  0  0
    1.9770    1.2221   -1.2930 H   0  0  0  0  0  0  0  0  0  0  0  0
    1.0329   -1.2158   -2.1968 H   0  0  0  0  0  0  0  0  0  0  0  0
    1.4911   -2.4530   -1.0593 H   0  0  0  0  0  0  0  0  0  0  0  0
    4.0746   -1.5570    0.0893 H   0  0  0  0  0  0  0  0  0  0  0  0
    5.0950   -0.8044   -1.1027 H   0  0  0  0  0  0  0  0  0  0  0  0
    2.2445    2.8485    0.5468 H   0  0  0  0  0  0  0  0  0  0  0  0
    1.6703    1.7161    1.7194 H   0  0  0  0  0  0  0  0  0  0  0  0
    3.4575   -2.2282   -2.2175 H   0  0  0  0  0  0  0  0  0  0  0  0
    3.1584   -0.5559   -2.6460 H   0  0  0  0  0  0  0  0  0  0  0  0
    0.2412    2.9184   -0.6849 H   0  0  0  0  0  0  0  0  0  0  0  0
   -0.2064    3.0068    1.0224 H   0  0  0  0  0  0  0  0  0  0  0  0
    4.1319    1.6137   -2.0631 H   0  0  0  0  0  0  0  0  0  0  0  0
    4.2184    2.6760   -0.6516 H   0  0  0  0  0  0  0  0  0  0  0  0
    5.5179    1.5258   -0.9721 H   0  0  0  0  0  0  0  0  0  0  0  0
    4.1067    1.7154    1.6883 H   0  0  0  0  0  0  0  0  0  0  0  0
    3.7953   -0.0053    1.9595 H   0  0  0  0  0  0  0  0  0  0  0  0
    5.3321    0.5181    1.2884 H   0  0  0  0  0  0  0  0  0  0  0  0
   -0.8130   -2.1976   -0.5124 H   0  0  0  0  0  0  0  0  0  0  0  0
   -2.4550    2.4231    0.1727 H   0  0  0  0  0  0  0  0  0  0  0  0
    1.3583   -0.7823    3.0684 H   0  0  0  0  0  0  0  0  0  0  0  0
   -5.0311   -0.2614   -0.3732 H   0  0  0  0  0  0  0  0  0  0  0  0
   -4.4364    2.6122   -1.2024 H   0  0  0  0  0  0  0  0  0  0  0  0
   -5.9616    1.7308   -1.3602 H   0  0  0  0  0  0  0  0  0  0  0  0
   -4.5472    1.2269   -2.3000 H   0  0  0  0  0  0  0  0  0  0  0  0
   -4.7030    0.5227    1.9766 H   0  0  0  0  0  0  0  0  0  0  0  0
   -6.0554    1.3113    1.1483 H   0  0  0  0  0  0  0  0  0  0  0  0
   -4.5366    2.1846    1.3895 H   0  0  0  0  0  0  0  0  0  0  0  0
   -4.2790   -1.9495    1.3247 H   0  0  0  0  0  0  0  0  0  0  0  0
   -2.9930   -3.1701    1.0709 H   0  0  0  0  0  0  0  0  0  0  0  0
   -4.5854   -3.3755    0.3127 H   0  0  0  0  0  0  0  0  0  0  0  0
  1 16  1  0  0  0  0
  1 44  1  0  0  0  0
  2 16  2  0  0  0  0
  3 20  1  0  0  0  0
  3 24  1  0  0  0  0
  4  5  1  0  0  0  0
  4  6  1  0  0  0  0
  4  9  1  0  0  0  0
  4 25  1  0  0  0  0
  5  7  1  0  0  0  0
  5 11  1  0  0  0  0
  5 16  1  0  0  0  0
  6  8  1  0  0  0  0
  6 13  1  0  0  0  0
  6 14  1  0  0  0  0
  7 10  1  0  0  0  0
  7 26  1  0  0  0  0
  7 27  1  0  0  0  0
  8 10  1  0  0  0  0
  8 28  1  0  0  0  0
  8 29  1  0  0  0  0
  9 12  1  0  0  0  0
  9 30  1  0  0  0  0
  9 31  1  0  0  0  0
 10 32  1  0  0  0  0
 10 33  1  0  0  0  0
 11 15  1  0  0  0  0
 11 17  2  0  0  0  0
 12 15  1  0  0  0  0
 12 34  1  0  0  0  0
 12 35  1  0  0  0  0
 13 36  1  0  0  0  0
 13 37  1  0  0  0  0
 13 38  1  0  0  0  0
 14 39  1  0  0  0  0
 14 40  1  0  0  0  0
 14 41  1  0  0  0  0
 15 18  2  0  0  0  0
 17 20  1  0  0  0  0
 17 42  1  0  0  0  0
 18 19  1  0  0  0  0
 18 43  1  0  0  0  0
 19 20  2  0  0  0  0
 19 21  1  0  0  0  0
 21 22  1  0  0  0  0
 21 23  1  0  0  0  0
 21 45  1  0  0  0  0
 22 46  1  0  0  0  0
 22 47  1  0  0  0  0
 22 48  1  0  0  0  0
 23 49  1  0  0  0  0
 23 50  1  0  0  0  0
 23 51  1  0  0  0  0
 24 52  1  0  0  0  0
 24 53  1  0  0  0  0
 24 54  1  0  0  0  0
M  END
> <PUBCHEM_COMPOUND_CID>
13654835

> <PUBCHEM_CONFORMER_RMSD>
0.8

> <PUBCHEM_CONFORMER_DIVERSEORDER>
1

> <PUBCHEM_MMFF94_PARTIAL_CHARGES>
17
1 -0.65
11 -0.14
12 0.14
15 -0.14
16 0.66
17 -0.15
18 -0.15
19 -0.14
2 -0.57
20 0.08
21 0.14
24 0.28
3 -0.36
42 0.15
43 0.15
44 0.5
5 0.2

> <PUBCHEM_EFFECTIVE_ROTOR_COUNT>
4.2

> <PUBCHEM_PHARMACOPHORE_FEATURES>
9
1 1 acceptor
1 2 acceptor
1 3 acceptor
3 1 2 16 anion
3 21 22 23 hydrophobe
3 6 13 14 hydrophobe
6 11 15 17 18 19 20 rings
6 4 5 6 7 8 10 rings
6 4 5 9 11 12 15 rings

> <PUBCHEM_HEAVY_ATOM_COUNT>
24

> <PUBCHEM_ATOM_DEF_STEREO_COUNT>
2

> <PUBCHEM_ATOM_UDEF_STEREO_COUNT>
0

> <PUBCHEM_BOND_DEF_STEREO_COUNT>
0

> <PUBCHEM_BOND_UDEF_STEREO_COUNT>
0

> <PUBCHEM_ISOTOPIC_ATOM_COUNT>
0

> <PUBCHEM_COMPONENT_COUNT>
1

> <PUBCHEM_CACTVS_TAUTO_COUNT>
1

> <PUBCHEM_CONFORMER_ID>
00D05B3300000001

> <PUBCHEM_MMFF94_ENERGY>
95.5304

> <PUBCHEM_FEATURE_SELFOVERLAP>
45.764

> <PUBCHEM_SHAPE_FINGERPRINT>
10498660 4 18410854352264080445
10863032 1 18202288000328800604
10906281 52 18265348368538446768
11132069 177 18412541015759332101
11405975 8 18341618083493555306
11578080 2 16701161136319907355
12236239 1 17676489415207331942
12553582 1 18340201882789552545
12788726 201 18058726876067445233
13140716 1 18413387614301677107
13224815 77 18187648032705756731
14787075 74 18119255201407708788
14790565 3 18263932201134217108
15196674 1 18341334473996862772
15375358 24 18272929410310137421
15788980 27 17603864494364791637
1601671 61 18272090504444999364
16945 1 18113341890677201524
17349148 13 17988913462850209253
19784866 9 18040428872018438976
19862831 5 18411421687173395637
200 152 16917347026510406205
20691752 17 17531241802826516925
21033648 29 16988554715371983579
21267235 1 18270131118942157158
21421861 104 17896874366126742864
221490 88 18340775960538884277
22182313 1 18202014247455680575
23402539 116 18409443713574497918
23557571 272 18341623658260768495
23559900 14 18342462495955465310
2748010 2 18341607174719339053
2838139 119 17169570695050744844
296302 2 17240199949688595901
335352 9 18270966747552433412
34934 24 18411131429094196029
350125 39 18339650065781603125
4340502 62 16950573151342247049
474 4 17895484716774095700
5104073 3 18413388760799287962
59755656 215 18342176606015793686
633830 44 18113620118563762718
9709674 26 18343301496294143687

> <PUBCHEM_SHAPE_MULTIPOLES>
476.3
9.62
2.47
1.42
5.3
0.46
0.22
-1.69
-1.13
0.91
0.13
-0.72
0.26
0.5

> <PUBCHEM_SHAPE_SELFOVERLAP>
1014.461

> <PUBCHEM_SHAPE_VOLUME>
264.5

> <PUBCHEM_COORDINATE_TYPE>
2
5
10

$$$$
