101371515
  -OEChem-08012508173D

 55 57  0     1  0  0  0  0  0999 V2000
    2.8282    2.0729    1.7383 O   0  0  0  0  0  0  0  0  0  0  0  0
    0.6191    1.8772    2.2652 O   0  0  0  0  0  0  0  0  0  0  0  0
   -0.5821    2.2241   -1.1103 O   0  0  0  0  0  0  0  0  0  0  0  0
   -3.1393    1.3977   -1.2866 O   0  0  0  0  0  0  0  0  0  0  0  0
    2.4967   -0.4678    0.5289 C   0  0  2  0  0  0  0  0  0  0  0  0
    1.5054    0.7279    0.3046 C   0  0  1  0  0  0  0  0  0  0  0  0
    2.9556   -1.2332   -0.7762 C   0  0  0  0  0  0  0  0  0  0  0  0
    2.0407    1.6236   -0.8447 C   0  0  0  0  0  0  0  0  0  0  0  0
    3.3936   -0.2100   -1.8538 C   0  0  0  0  0  0  0  0  0  0  0  0
    1.9906   -1.3596    1.6799 C   0  0  0  0  0  0  0  0  0  0  0  0
    2.3419    0.8571   -2.1227 C   0  0  0  0  0  0  0  0  0  0  0  0
    0.0570    0.2576    0.1596 C   0  0  0  0  0  0  0  0  0  0  0  0
    0.5537   -1.8463    1.5373 C   0  0  0  0  0  0  0  0  0  0  0  0
    4.1919   -2.1107   -0.4577 C   0  0  0  0  0  0  0  0  0  0  0  0
    1.8988   -2.1675   -1.3963 C   0  0  0  0  0  0  0  0  0  0  0  0
   -0.3751   -0.9339    0.7804 C   0  0  0  0  0  0  0  0  0  0  0  0
    1.5686    1.6124    1.5428 C   0  0  0  0  0  0  0  0  0  0  0  0
   -0.9042    1.0323   -0.5185 C   0  0  0  0  0  0  0  0  0  0  0  0
   -1.7218   -1.3312    0.6779 C   0  0  0  0  0  0  0  0  0  0  0  0
   -2.6466   -0.5579   -0.0158 C   0  0  0  0  0  0  0  0  0  0  0  0
   -2.2375    0.6263   -0.6116 C   0  0  0  0  0  0  0  0  0  0  0  0
   -4.0635   -1.0165   -0.1080 C   0  0  0  0  0  0  0  0  0  0  0  0
   -4.7425   -1.1079    1.2712 C   0  0  0  0  0  0  0  0  0  0  0  0
   -4.1997   -2.3596   -0.8487 C   0  0  0  0  0  0  0  0  0  0  0  0
   -3.8297    2.3930   -0.5350 C   0  0  0  0  0  0  0  0  0  0  0  0
    3.4368   -0.0405    0.9108 H   0  0  0  0  0  0  0  0  0  0  0  0
    3.0134    2.0441   -0.5459 H   0  0  0  0  0  0  0  0  0  0  0  0
    1.4750    2.5327   -1.0426 H   0  0  0  0  0  0  0  0  0  0  0  0
    3.6328   -0.7215   -2.7950 H   0  0  0  0  0  0  0  0  0  0  0  0
    4.3222    0.2838   -1.5359 H   0  0  0  0  0  0  0  0  0  0  0  0
    2.0521   -0.7785    2.6107 H   0  0  0  0  0  0  0  0  0  0  0  0
    2.6517   -2.2155    1.8503 H   0  0  0  0  0  0  0  0  0  0  0  0
    1.4297    0.4205   -2.5414 H   0  0  0  0  0  0  0  0  0  0  0  0
    2.7285    1.5531   -2.8768 H   0  0  0  0  0  0  0  0  0  0  0  0
    0.1465   -2.0084    2.5441 H   0  0  0  0  0  0  0  0  0  0  0  0
    0.5493   -2.8269    1.0491 H   0  0  0  0  0  0  0  0  0  0  0  0
    4.6027   -2.5573   -1.3710 H   0  0  0  0  0  0  0  0  0  0  0  0
    4.9909   -1.5217    0.0064 H   0  0  0  0  0  0  0  0  0  0  0  0
    3.9450   -2.9347    0.2190 H   0  0  0  0  0  0  0  0  0  0  0  0
    0.9617   -1.6560   -1.6240 H   0  0  0  0  0  0  0  0  0  0  0  0
    2.2623   -2.5894   -2.3417 H   0  0  0  0  0  0  0  0  0  0  0  0
    1.6830   -3.0219   -0.7501 H   0  0  0  0  0  0  0  0  0  0  0  0
   -2.0293   -2.2612    1.1519 H   0  0  0  0  0  0  0  0  0  0  0  0
    2.8897    2.6456    2.5323 H   0  0  0  0  0  0  0  0  0  0  0  0
   -4.6591   -0.3043   -0.6904 H   0  0  0  0  0  0  0  0  0  0  0  0
   -1.3532    2.5585   -1.5989 H   0  0  0  0  0  0  0  0  0  0  0  0
   -4.2890   -1.8802    1.9017 H   0  0  0  0  0  0  0  0  0  0  0  0
   -5.8046   -1.3522    1.1602 H   0  0  0  0  0  0  0  0  0  0  0  0
   -4.6714   -0.1543    1.8057 H   0  0  0  0  0  0  0  0  0  0  0  0
   -3.7201   -3.1800   -0.3040 H   0  0  0  0  0  0  0  0  0  0  0  0
   -3.7418   -2.3038   -1.8426 H   0  0  0  0  0  0  0  0  0  0  0  0
   -5.2555   -2.6208   -0.9795 H   0  0  0  0  0  0  0  0  0  0  0  0
   -3.1292    3.1375   -0.1439 H   0  0  0  0  0  0  0  0  0  0  0  0
   -4.3913    1.9452    0.2903 H   0  0  0  0  0  0  0  0  0  0  0  0
   -4.5348    2.8963   -1.2022 H   0  0  0  0  0  0  0  0  0  0  0  0
  1 17  1  0  0  0  0
  1 44  1  0  0  0  0
  2 17  2  0  0  0  0
  3 18  1  0  0  0  0
  3 46  1  0  0  0  0
  4 21  1  0  0  0  0
  4 25  1  0  0  0  0
  5  6  1  0  0  0  0
  5  7  1  0  0  0  0
  5 10  1  0  0  0  0
  5 26  1  0  0  0  0
  6  8  1  0  0  0  0
  6 12  1  0  0  0  0
  6 17  1  0  0  0  0
  7  9  1  0  0  0  0
  7 14  1  0  0  0  0
  7 15  1  0  0  0  0
  8 11  1  0  0  0  0
  8 27  1  0  0  0  0
  8 28  1  0  0  0  0
  9 11  1  0  0  0  0
  9 29  1  0  0  0  0
  9 30  1  0  0  0  0
 10 13  1  0  0  0  0
 10 31  1  0  0  0  0
 10 32  1  0  0  0  0
 11 33  1  0  0  0  0
 11 34  1  0  0  0  0
 12 16  1  0  0  0  0
 12 18  2  0  0  0  0
 13 16  1  0  0  0  0
 13 35  1  0  0  0  0
 13 36  1  0  0  0  0
 14 37  1  0  0  0  0
 14 38  1  0  0  0  0
 14 39  1  0  0  0  0
 15 40  1  0  0  0  0
 15 41  1  0  0  0  0
 15 42  1  0  0  0  0
 16 19  2  0  0  0  0
 18 21  1  0  0  0  0
 19 20  1  0  0  0  0
 19 43  1  0  0  0  0
 20 21  2  0  0  0  0
 20 22  1  0  0  0  0
 22 23  1  0  0  0  0
 22 24  1  0  0  0  0
 22 45  1  0  0  0  0
 23 47  1  0  0  0  0
 23 48  1  0  0  0  0
 23 49  1  0  0  0  0
 24 50  1  0  0  0  0
 24 51  1  0  0  0  0
 24 52  1  0  0  0  0
 25 53  1  0  0  0  0
 25 54  1  0  0  0  0
 25 55  1  0  0  0  0
M  END
> <PUBCHEM_COMPOUND_CID>
101371515

> <PUBCHEM_CONFORMER_RMSD>
0.8

> <PUBCHEM_CONFORMER_DIVERSEORDER>
4
5
2
6
8
3
7
1

> <PUBCHEM_MMFF94_PARTIAL_CHARGES>
18
1 -0.65
12 -0.14
13 0.14
16 -0.14
17 0.66
18 0.08
19 -0.15
2 -0.57
20 -0.14
21 0.08
22 0.14
25 0.28
3 -0.53
4 -0.36
43 0.15
44 0.5
46 0.45
6 0.2

> <PUBCHEM_EFFECTIVE_ROTOR_COUNT>
4.2

> <PUBCHEM_PHARMACOPHORE_FEATURES>
10
1 1 acceptor
1 2 acceptor
1 3 donor
1 4 acceptor
3 1 2 17 anion
3 22 23 24 hydrophobe
3 7 14 15 hydrophobe
6 12 16 18 19 20 21 rings
6 5 6 10 12 13 16 rings
6 5 6 7 8 9 11 rings

> <PUBCHEM_HEAVY_ATOM_COUNT>
25

> <PUBCHEM_ATOM_DEF_STEREO_COUNT>
2

> <PUBCHEM_ATOM_UDEF_STEREO_COUNT>
0

> <PUBCHEM_BOND_DEF_STEREO_COUNT>
0

> <PUBCHEM_BOND_UDEF_STEREO_COUNT>
0

> <PUBCHEM_ISOTOPIC_ATOM_COUNT>
0

> <PUBCHEM_COMPONENT_COUNT>
1

> <PUBCHEM_CACTVS_TAUTO_COUNT>
13

> <PUBCHEM_CONFORMER_ID>
060ACE7B00000004

> <PUBCHEM_MMFF94_ENERGY>
100.2788

> <PUBCHEM_FEATURE_SELFOVERLAP>
50.869

> <PUBCHEM_SHAPE_FINGERPRINT>
10498660 4 17603301544817565877
10764073 3 17832946553018176592
10863032 1 17822589269211305310
11552529 35 16986869284601281095
11578080 2 18413103952844293265
11640471 11 15502940860370611846
12293681 4 17773037453912326281
12553582 1 18042688484873520467
12633257 1 17560539355997044467
13009979 54 17532922806134927010
13140716 1 18115854223254606841
13224815 77 18040713680142816283
13583140 156 15410892990131882499
13911987 19 17626702571546823436
14178342 30 17896298282332492321
14223421 5 18341885355371705065
15664445 248 18117281565278199621
16752209 62 18041268942278922583
16945 1 18046052770841360448
17349148 13 17314208112072678707
20600515 1 17759222025968895514
20691752 17 17313098631567222073
20775530 9 17984433931513678350
22182313 1 18335123315911287677
2334 1 18186792587438117497
23402539 116 18041001679254419390
23419403 2 18268688560303680316
23557571 272 18336818766651015001
23559900 14 18410288103575679765
238 59 18190469448288857422
2748010 2 18261658325483288917
3286 77 18201721768735684335
463206 1 18272378546459166694
474 4 15503520298914271806
6049 1 18342734126777364833
633830 44 15792032033704245020
8509985 295 13973699295250913283
9981440 41 16159656173957064108

> <PUBCHEM_SHAPE_MULTIPOLES>
491.01
7.6
2.74
1.92
6.13
0.34
-0.36
-2.69
1.81
0.43
0.04
-1.34
0.37
0.85

> <PUBCHEM_SHAPE_SELFOVERLAP>
1049.567

> <PUBCHEM_SHAPE_VOLUME>
271.3

> <PUBCHEM_COORDINATE_TYPE>
2
5
10

$$$$
