155532943
  -OEChem-08012508303D

 67 69  0     1  0  0  0  0  0999 V2000
   -1.7542   -0.3417   -1.4214 O   0  0  0  0  0  0  0  0  0  0  0  0
    0.7250   -0.8644    2.0748 O   0  0  0  0  0  0  0  0  0  0  0  0
    3.3667   -1.1674    1.8531 O   0  0  0  0  0  0  0  0  0  0  0  0
   -1.6761   -1.2891    0.7034 N   0  0  0  0  0  0  0  0  0  0  0  0
   -1.7323   -4.8504   -0.3920 N   0  0  0  0  0  0  0  0  0  0  0  0
   -1.3134    2.2840   -0.3188 C   0  0  2  0  0  0  0  0  0  0  0  0
   -0.8656    0.9605    0.3948 C   0  0  2  0  0  0  0  0  0  0  0  0
   -2.8333    2.6471   -0.1778 C   0  0  0  0  0  0  0  0  0  0  0  0
   -1.3264    1.0301    1.8752 C   0  0  0  0  0  0  0  0  0  0  0  0
   -3.2178    2.6191    1.3215 C   0  0  0  0  0  0  0  0  0  0  0  0
   -0.7732    2.3256   -1.7578 C   0  0  0  0  0  0  0  0  0  0  0  0
   -2.8156    1.3361    2.0343 C   0  0  0  0  0  0  0  0  0  0  0  0
    0.6567    0.7712    0.2671 C   0  0  0  0  0  0  0  0  0  0  0  0
    0.7523    2.3512   -1.7456 C   0  0  0  0  0  0  0  0  0  0  0  0
   -3.7709    1.7273   -0.9831 C   0  0  0  0  0  0  0  0  0  0  0  0
   -3.0870    4.0917   -0.6779 C   0  0  0  0  0  0  0  0  0  0  0  0
    1.3861    1.3977   -0.7661 C   0  0  0  0  0  0  0  0  0  0  0  0
   -1.4856   -0.2793   -0.2246 C   0  0  0  0  0  0  0  0  0  0  0  0
    1.3498   -0.1004    1.1314 C   0  0  0  0  0  0  0  0  0  0  0  0
    2.7720    1.1805   -0.8767 C   0  0  0  0  0  0  0  0  0  0  0  0
    3.4367    0.3311    0.0029 C   0  0  0  0  0  0  0  0  0  0  0  0
    2.7240   -0.3130    1.0048 C   0  0  0  0  0  0  0  0  0  0  0  0
   -2.2318   -2.5781    0.3614 C   0  0  0  0  0  0  0  0  0  0  0  0
    4.9065    0.1220   -0.1518 C   0  0  0  0  0  0  0  0  0  0  0  0
   -1.1440   -3.5653   -0.0369 C   0  0  0  0  0  0  0  0  0  0  0  0
    5.2696   -0.5212   -1.5031 C   0  0  0  0  0  0  0  0  0  0  0  0
    5.7084    1.4224    0.0414 C   0  0  0  0  0  0  0  0  0  0  0  0
   -2.2886   -4.8072   -1.7458 C   0  0  0  0  0  0  0  0  0  0  0  0
   -0.7380   -5.9201   -0.2867 C   0  0  0  0  0  0  0  0  0  0  0  0
   -0.7873    3.0970    0.2115 H   0  0  0  0  0  0  0  0  0  0  0  0
   -0.7819    1.8719    2.3336 H   0  0  0  0  0  0  0  0  0  0  0  0
   -1.0995    0.2164    2.5600 H   0  0  0  0  0  0  0  0  0  0  0  0
   -4.2984    2.7708    1.4401 H   0  0  0  0  0  0  0  0  0  0  0  0
   -2.7347    3.4609    1.8365 H   0  0  0  0  0  0  0  0  0  0  0  0
   -1.0999    3.2374   -2.2691 H   0  0  0  0  0  0  0  0  0  0  0  0
   -1.1270    1.5116   -2.3901 H   0  0  0  0  0  0  0  0  0  0  0  0
   -3.4281    0.4988    1.6848 H   0  0  0  0  0  0  0  0  0  0  0  0
   -3.0410    1.4469    3.1024 H   0  0  0  0  0  0  0  0  0  0  0  0
    1.0877    3.3644   -1.4879 H   0  0  0  0  0  0  0  0  0  0  0  0
    1.1131    2.1380   -2.7594 H   0  0  0  0  0  0  0  0  0  0  0  0
   -3.8412    0.7189   -0.5716 H   0  0  0  0  0  0  0  0  0  0  0  0
   -4.7948    2.1221   -0.9709 H   0  0  0  0  0  0  0  0  0  0  0  0
   -3.4732    1.6605   -2.0340 H   0  0  0  0  0  0  0  0  0  0  0  0
   -2.9879    4.1728   -1.7649 H   0  0  0  0  0  0  0  0  0  0  0  0
   -4.1018    4.4224   -0.4260 H   0  0  0  0  0  0  0  0  0  0  0  0
   -2.3883    4.8006   -0.2199 H   0  0  0  0  0  0  0  0  0  0  0  0
    3.3194    1.6899   -1.6671 H   0  0  0  0  0  0  0  0  0  0  0  0
   -1.2590   -1.2646    1.6209 H   0  0  0  0  0  0  0  0  0  0  0  0
   -2.9592   -2.4232   -0.4413 H   0  0  0  0  0  0  0  0  0  0  0  0
   -2.7745   -2.9361    1.2435 H   0  0  0  0  0  0  0  0  0  0  0  0
    5.2710   -0.5702    0.6171 H   0  0  0  0  0  0  0  0  0  0  0  0
    1.1890   -1.7135    2.1659 H   0  0  0  0  0  0  0  0  0  0  0  0
   -0.4785   -3.6785    0.8301 H   0  0  0  0  0  0  0  0  0  0  0  0
   -0.5182   -3.1635   -0.8451 H   0  0  0  0  0  0  0  0  0  0  0  0
    2.8657   -1.2302    2.6833 H   0  0  0  0  0  0  0  0  0  0  0  0
    4.7237   -1.4605   -1.6458 H   0  0  0  0  0  0  0  0  0  0  0  0
    6.3410   -0.7458   -1.5456 H   0  0  0  0  0  0  0  0  0  0  0  0
    5.0344    0.1354   -2.3475 H   0  0  0  0  0  0  0  0  0  0  0  0
    5.4920    2.1591   -0.7397 H   0  0  0  0  0  0  0  0  0  0  0  0
    6.7842    1.2173    0.0151 H   0  0  0  0  0  0  0  0  0  0  0  0
    5.4777    1.8814    1.0093 H   0  0  0  0  0  0  0  0  0  0  0  0
   -3.1019   -4.0803   -1.8294 H   0  0  0  0  0  0  0  0  0  0  0  0
   -1.5292   -4.5660   -2.4988 H   0  0  0  0  0  0  0  0  0  0  0  0
   -2.7263   -5.7778   -2.0068 H   0  0  0  0  0  0  0  0  0  0  0  0
   -0.3638   -6.0001    0.7401 H   0  0  0  0  0  0  0  0  0  0  0  0
   -1.1874   -6.8894   -0.5300 H   0  0  0  0  0  0  0  0  0  0  0  0
    0.1155   -5.7571   -0.9549 H   0  0  0  0  0  0  0  0  0  0  0  0
  1 18  2  0  0  0  0
  2 19  1  0  0  0  0
  2 52  1  0  0  0  0
  3 22  1  0  0  0  0
  3 55  1  0  0  0  0
  4 18  1  0  0  0  0
  4 23  1  0  0  0  0
  4 48  1  0  0  0  0
  5 25  1  0  0  0  0
  5 28  1  0  0  0  0
  5 29  1  0  0  0  0
  6  7  1  0  0  0  0
  6  8  1  0  0  0  0
  6 11  1  0  0  0  0
  6 30  1  0  0  0  0
  7  9  1  0  0  0  0
  7 13  1  0  0  0  0
  7 18  1  0  0  0  0
  8 10  1  0  0  0  0
  8 15  1  0  0  0  0
  8 16  1  0  0  0  0
  9 12  1  0  0  0  0
  9 31  1  0  0  0  0
  9 32  1  0  0  0  0
 10 12  1  0  0  0  0
 10 33  1  0  0  0  0
 10 34  1  0  0  0  0
 11 14  1  0  0  0  0
 11 35  1  0  0  0  0
 11 36  1  0  0  0  0
 12 37  1  0  0  0  0
 12 38  1  0  0  0  0
 13 17  1  0  0  0  0
 13 19  2  0  0  0  0
 14 17  1  0  0  0  0
 14 39  1  0  0  0  0
 14 40  1  0  0  0  0
 15 41  1  0  0  0  0
 15 42  1  0  0  0  0
 15 43  1  0  0  0  0
 16 44  1  0  0  0  0
 16 45  1  0  0  0  0
 16 46  1  0  0  0  0
 17 20  2  0  0  0  0
 19 22  1  0  0  0  0
 20 21  1  0  0  0  0
 20 47  1  0  0  0  0
 21 22  2  0  0  0  0
 21 24  1  0  0  0  0
 23 25  1  0  0  0  0
 23 49  1  0  0  0  0
 23 50  1  0  0  0  0
 24 26  1  0  0  0  0
 24 27  1  0  0  0  0
 24 51  1  0  0  0  0
 25 53  1  0  0  0  0
 25 54  1  0  0  0  0
 26 56  1  0  0  0  0
 26 57  1  0  0  0  0
 26 58  1  0  0  0  0
 27 59  1  0  0  0  0
 27 60  1  0  0  0  0
 27 61  1  0  0  0  0
 28 62  1  0  0  0  0
 28 63  1  0  0  0  0
 28 64  1  0  0  0  0
 29 65  1  0  0  0  0
 29 66  1  0  0  0  0
 29 67  1  0  0  0  0
M  END
> <PUBCHEM_COMPOUND_CID>
155532943

> <PUBCHEM_CONFORMER_RMSD>
0.8

> <PUBCHEM_CONFORMER_DIVERSEORDER>
8
4
24
19
25
5
6
22
2
23
18
17
9
26
21
16
12
14
15
27
3
20
11
1
7
10
13

> <PUBCHEM_MMFF94_PARTIAL_CHARGES>
23
1 -0.57
13 -0.14
14 0.14
17 -0.14
18 0.57
19 0.08
2 -0.53
20 -0.15
21 -0.14
22 0.08
23 0.3
24 0.14
25 0.27
28 0.27
29 0.27
3 -0.53
4 -0.73
47 0.15
48 0.37
5 -0.81
52 0.45
55 0.45
7 0.2

> <PUBCHEM_EFFECTIVE_ROTOR_COUNT>
7.2

> <PUBCHEM_PHARMACOPHORE_FEATURES>
10
1 1 acceptor
1 2 donor
1 3 donor
1 4 donor
1 5 cation
3 24 26 27 hydrophobe
3 8 15 16 hydrophobe
6 13 17 19 20 21 22 rings
6 6 7 11 13 14 17 rings
6 6 7 8 9 10 12 rings

> <PUBCHEM_HEAVY_ATOM_COUNT>
29

> <PUBCHEM_ATOM_DEF_STEREO_COUNT>
2

> <PUBCHEM_ATOM_UDEF_STEREO_COUNT>
0

> <PUBCHEM_BOND_DEF_STEREO_COUNT>
0

> <PUBCHEM_BOND_UDEF_STEREO_COUNT>
0

> <PUBCHEM_ISOTOPIC_ATOM_COUNT>
0

> <PUBCHEM_COMPONENT_COUNT>
1

> <PUBCHEM_CACTVS_TAUTO_COUNT>
-1

> <PUBCHEM_CONFORMER_ID>
09453E8F00000008

> <PUBCHEM_MMFF94_ENERGY>
103.8282

> <PUBCHEM_FEATURE_SELFOVERLAP>
50.792

> <PUBCHEM_SHAPE_FINGERPRINT>
10169797 241 15952441267256523802
107951 10 18271535182247988414
11115154 58 17978499064822080591
11552529 35 18270966846906315008
12553582 1 17974276922205652626
12788726 201 18338220670094866767
13004483 165 18192441989782202379
13140716 1 17244731166546907224
133893 2 17336189260835593241
13583140 156 17275107254239204872
14068700 675 17903062671308708466
14856354 85 16879379803671857432
15064986 96 17829905230260996825
15131766 46 14420140688798535334
15309172 13 18192712241772654137
15439362 3 17617376178295587469
15463212 79 18333726931759601946
19930381 70 17328868690743025262
20028762 73 18413384329310955519
20602899 9 18343019948144811241
20775438 99 16685367932062394903
20775530 9 17907011034396424246
21033648 29 18341326678711427128
21120745 212 17980775040341477780
21452121 199 17688859152726402480
22956985 138 17833859096198883075
23559900 14 18272374132139120888
255183 313 18198925724120962299
3027735 51 18271232851274273367
34934 24 17458627753074236808
3729539 64 17476668394187351822
4015057 19 16845285008914840856
4017518 198 18053931871625952662
4280585 95 17830717013904279018
458136 41 17981046310707969577
463206 1 17613720735919725826
4921388 177 18272376377768433798
57359948 33 15960008089194370535
59444896 2 7837633004280052306
6287921 2 17545027217949679889
70251023 43 17975703001908851378
90525 40 18260832544710939361

> <PUBCHEM_SHAPE_MULTIPOLES>
569.24
7.85
6.31
1.83
12.5
13.41
-0.31
-4.44
0.55
-7.81
2.72
-0.33
-0.27
-0.97

> <PUBCHEM_SHAPE_SELFOVERLAP>
1197.604

> <PUBCHEM_SHAPE_VOLUME>
318.9

> <PUBCHEM_COORDINATE_TYPE>
2
5
10

$$$$
