155539703
  -OEChem-08012508303D

 58 60  0     1  0  0  0  0  0999 V2000
   -1.6649    0.4120    1.8379 O   0  0  0  0  0  0  0  0  0  0  0  0
    0.7545    1.8384   -1.4485 O   0  0  0  0  0  0  0  0  0  0  0  0
    3.4189    1.8329   -1.3057 O   0  0  0  0  0  0  0  0  0  0  0  0
   -2.2708    3.1663    2.0121 O   0  0  0  0  0  0  0  0  0  0  0  0
   -1.5469    1.9957    0.1235 N   0  0  0  0  0  0  0  0  0  0  0  0
   -1.5065   -1.7381   -0.0723 C   0  0  2  0  0  0  0  0  0  0  0  0
   -0.9536   -0.2962   -0.3489 C   0  0  2  0  0  0  0  0  0  0  0  0
   -3.0585   -1.9084   -0.2278 C   0  0  0  0  0  0  0  0  0  0  0  0
   -1.4660    0.1588   -1.7415 C   0  0  0  0  0  0  0  0  0  0  0  0
   -3.4860   -1.3616   -1.6116 C   0  0  0  0  0  0  0  0  0  0  0  0
   -0.9273   -2.2909    1.2404 C   0  0  0  0  0  0  0  0  0  0  0  0
   -2.9824    0.0456   -1.8977 C   0  0  0  0  0  0  0  0  0  0  0  0
    0.5832   -0.2854   -0.2620 C   0  0  0  0  0  0  0  0  0  0  0  0
    0.5871   -2.4372    1.1259 C   0  0  0  0  0  0  0  0  0  0  0  0
   -3.4370   -3.4108   -0.2040 C   0  0  0  0  0  0  0  0  0  0  0  0
   -3.8748   -1.2269    0.8870 C   0  0  0  0  0  0  0  0  0  0  0  0
    1.2801   -1.2725    0.4675 C   0  0  0  0  0  0  0  0  0  0  0  0
   -1.4284    0.7210    0.6733 C   0  0  0  0  0  0  0  0  0  0  0  0
    1.3309    0.7597   -0.8415 C   0  0  0  0  0  0  0  0  0  0  0  0
    2.6834   -1.2186    0.5558 C   0  0  0  0  0  0  0  0  0  0  0  0
    3.4001   -0.1871   -0.0436 C   0  0  0  0  0  0  0  0  0  0  0  0
    2.7226    0.8050   -0.7389 C   0  0  0  0  0  0  0  0  0  0  0  0
    4.8875   -0.1622    0.0785 C   0  0  0  0  0  0  0  0  0  0  0  0
   -1.9577    3.1268    0.8253 C   0  0  0  0  0  0  0  0  0  0  0  0
    5.5510   -1.3903   -0.5720 C   0  0  0  0  0  0  0  0  0  0  0  0
    5.3551   -0.0267    1.5395 C   0  0  0  0  0  0  0  0  0  0  0  0
   -1.9935    4.3505   -0.0505 C   0  0  0  0  0  0  0  0  0  0  0  0
   -1.0801   -2.3747   -0.8672 H   0  0  0  0  0  0  0  0  0  0  0  0
   -1.0263   -0.5385   -2.4740 H   0  0  0  0  0  0  0  0  0  0  0  0
   -1.1735    1.1200   -2.1574 H   0  0  0  0  0  0  0  0  0  0  0  0
   -4.5795   -1.3764   -1.7053 H   0  0  0  0  0  0  0  0  0  0  0  0
   -3.1050   -2.0267   -2.3988 H   0  0  0  0  0  0  0  0  0  0  0  0
   -1.3260   -3.2888    1.4514 H   0  0  0  0  0  0  0  0  0  0  0  0
   -1.1782   -1.6998    2.1210 H   0  0  0  0  0  0  0  0  0  0  0  0
   -3.4982    0.7716   -1.2612 H   0  0  0  0  0  0  0  0  0  0  0  0
   -3.2512    0.3073   -2.9288 H   0  0  0  0  0  0  0  0  0  0  0  0
    0.8127   -3.3353    0.5359 H   0  0  0  0  0  0  0  0  0  0  0  0
    0.9993   -2.5966    2.1299 H   0  0  0  0  0  0  0  0  0  0  0  0
   -3.3118   -3.8495    0.7910 H   0  0  0  0  0  0  0  0  0  0  0  0
   -2.8263   -3.9870   -0.9079 H   0  0  0  0  0  0  0  0  0  0  0  0
   -4.4869   -3.5563   -0.4854 H   0  0  0  0  0  0  0  0  0  0  0  0
   -3.5375   -1.5293    1.8831 H   0  0  0  0  0  0  0  0  0  0  0  0
   -4.9319   -1.5123    0.8135 H   0  0  0  0  0  0  0  0  0  0  0  0
   -3.8615   -0.1374    0.8247 H   0  0  0  0  0  0  0  0  0  0  0  0
    3.2030   -2.0013    1.1049 H   0  0  0  0  0  0  0  0  0  0  0  0
   -1.2022    2.2021   -0.8020 H   0  0  0  0  0  0  0  0  0  0  0  0
    5.2937    0.7101   -0.4482 H   0  0  0  0  0  0  0  0  0  0  0  0
    1.2983    2.6289   -1.2942 H   0  0  0  0  0  0  0  0  0  0  0  0
    2.9016    2.2020   -2.0409 H   0  0  0  0  0  0  0  0  0  0  0  0
    5.2881   -2.3207   -0.0573 H   0  0  0  0  0  0  0  0  0  0  0  0
    5.2454   -1.4881   -1.6196 H   0  0  0  0  0  0  0  0  0  0  0  0
    6.6420   -1.2947   -0.5479 H   0  0  0  0  0  0  0  0  0  0  0  0
    5.0835   -0.9008    2.1410 H   0  0  0  0  0  0  0  0  0  0  0  0
    6.4442    0.0822    1.5853 H   0  0  0  0  0  0  0  0  0  0  0  0
    4.9092    0.8566    2.0102 H   0  0  0  0  0  0  0  0  0  0  0  0
   -2.4147    5.1914    0.5074 H   0  0  0  0  0  0  0  0  0  0  0  0
   -0.9784    4.6054   -0.3678 H   0  0  0  0  0  0  0  0  0  0  0  0
   -2.6156    4.1634   -0.9304 H   0  0  0  0  0  0  0  0  0  0  0  0
  1 18  2  0  0  0  0
  2 19  1  0  0  0  0
  2 48  1  0  0  0  0
  3 22  1  0  0  0  0
  3 49  1  0  0  0  0
  4 24  2  0  0  0  0
  5 18  1  0  0  0  0
  5 24  1  0  0  0  0
  5 46  1  0  0  0  0
  6  7  1  0  0  0  0
  6  8  1  0  0  0  0
  6 11  1  0  0  0  0
  6 28  1  0  0  0  0
  7  9  1  0  0  0  0
  7 13  1  0  0  0  0
  7 18  1  0  0  0  0
  8 10  1  0  0  0  0
  8 15  1  0  0  0  0
  8 16  1  0  0  0  0
  9 12  1  0  0  0  0
  9 29  1  0  0  0  0
  9 30  1  0  0  0  0
 10 12  1  0  0  0  0
 10 31  1  0  0  0  0
 10 32  1  0  0  0  0
 11 14  1  0  0  0  0
 11 33  1  0  0  0  0
 11 34  1  0  0  0  0
 12 35  1  0  0  0  0
 12 36  1  0  0  0  0
 13 17  1  0  0  0  0
 13 19  2  0  0  0  0
 14 17  1  0  0  0  0
 14 37  1  0  0  0  0
 14 38  1  0  0  0  0
 15 39  1  0  0  0  0
 15 40  1  0  0  0  0
 15 41  1  0  0  0  0
 16 42  1  0  0  0  0
 16 43  1  0  0  0  0
 16 44  1  0  0  0  0
 17 20  2  0  0  0  0
 19 22  1  0  0  0  0
 20 21  1  0  0  0  0
 20 45  1  0  0  0  0
 21 22  2  0  0  0  0
 21 23  1  0  0  0  0
 23 25  1  0  0  0  0
 23 26  1  0  0  0  0
 23 47  1  0  0  0  0
 24 27  1  0  0  0  0
 25 50  1  0  0  0  0
 25 51  1  0  0  0  0
 25 52  1  0  0  0  0
 26 53  1  0  0  0  0
 26 54  1  0  0  0  0
 26 55  1  0  0  0  0
 27 56  1  0  0  0  0
 27 57  1  0  0  0  0
 27 58  1  0  0  0  0
M  END
> <PUBCHEM_COMPOUND_CID>
155539703

> <PUBCHEM_CONFORMER_RMSD>
0.8

> <PUBCHEM_CONFORMER_DIVERSEORDER>
2
3
1
4

> <PUBCHEM_MMFF94_PARTIAL_CHARGES>
21
1 -0.57
13 -0.14
14 0.14
17 -0.14
18 0.57
19 0.08
2 -0.53
20 -0.15
21 -0.14
22 0.08
23 0.14
24 0.57
27 0.06
3 -0.53
4 -0.57
45 0.15
46 0.37
48 0.45
49 0.45
5 -0.49
7 0.2

> <PUBCHEM_EFFECTIVE_ROTOR_COUNT>
5.2

> <PUBCHEM_PHARMACOPHORE_FEATURES>
10
1 1 acceptor
1 2 donor
1 3 donor
1 4 acceptor
1 5 donor
3 23 25 26 hydrophobe
3 8 15 16 hydrophobe
6 13 17 19 20 21 22 rings
6 6 7 11 13 14 17 rings
6 6 7 8 9 10 12 rings

> <PUBCHEM_HEAVY_ATOM_COUNT>
27

> <PUBCHEM_ATOM_DEF_STEREO_COUNT>
2

> <PUBCHEM_ATOM_UDEF_STEREO_COUNT>
0

> <PUBCHEM_BOND_DEF_STEREO_COUNT>
0

> <PUBCHEM_BOND_UDEF_STEREO_COUNT>
0

> <PUBCHEM_ISOTOPIC_ATOM_COUNT>
0

> <PUBCHEM_COMPONENT_COUNT>
1

> <PUBCHEM_CACTVS_TAUTO_COUNT>
-1

> <PUBCHEM_CONFORMER_ID>
094558F700000002

> <PUBCHEM_MMFF94_ENERGY>
104.7554

> <PUBCHEM_FEATURE_SELFOVERLAP>
50.796

> <PUBCHEM_SHAPE_FINGERPRINT>
10863032 1 15720214206511053995
1100329 8 18410580604250520545
11115154 58 17986080060309136509
11315181 36 18334008398794938138
11578080 2 18123447626660749509
11640471 11 17768241319524715257
12035759 4 18261100859797091603
12173636 292 18341050701033417403
12403259 226 17827914349927223575
12403814 3 16774074111253647030
12788726 201 18267887110041202845
13004483 165 18340771558450697801
13027679 85 18265053720685419055
131258 38 16745135150010767931
13140716 1 18117566351611249026
13296909 8 18272651221099686400
13583140 156 17059765638485884390
13782708 43 18059858351506560646
14068700 675 18263353840958878894
14142880 1 18261670351128142473
14178342 30 18336826386445263410
14787075 74 17831860526859579300
14866123 147 18048597023990534754
14955137 171 18194415609012970267
15131766 46 16084509909532345092
15209294 21 18267862783931884096
15420108 30 17832703470068666224
15534591 1 18199185079351258201
16945 1 18343575252866645431
17349148 13 18261384590148740210
17980427 26 17119447434531529207
1813 80 17488186096114671327
18393751 57 17697572731791774064
18603816 31 13696686227263231112
192875 21 18336541715891409268
200 152 18336540620290049342
20510252 161 18263080062326003844
20775438 99 16682847885049174879
20832881 197 18193556890594810907
21033648 29 17417232279113414330
21197605 99 17035568458044856221
21304303 282 18051951668147477853
21339142 36 18338790234387347959
21731228 192 18050584944865487609
22112679 90 18057624233344517793
23419403 2 17981862431840706461
23558518 356 18336836281638885498
23559900 14 18192146212881244636
283562 15 18410004442460634739
312423 11 18261407667055468812
350125 39 18334305253221574984
352729 6 18115879662267390210
4015057 19 14706920761784290310
460360 51 17750233604501381738
463206 1 18050000288063560366
53917941 68 18194103141035052965
57527585 103 17313686887415802434
70251023 43 17702642471504761127
7164475 11 18412270553352821852
7471813 234 18127122194150998765
81228 2 18198649750749586657
9862522 239 17898573068658528540

> <PUBCHEM_SHAPE_MULTIPOLES>
527.19
8.53
3.86
1.64
12.02
3.37
0
-2.94
-0.27
-4.55
1.09
-0.71
0.41
-1.16

> <PUBCHEM_SHAPE_SELFOVERLAP>
1126.432

> <PUBCHEM_SHAPE_VOLUME>
289.3

> <PUBCHEM_COORDINATE_TYPE>
2
5
10

$$$$
