155563682
  -OEChem-08012508303D

 57 59  0     1  0  0  0  0  0999 V2000
   -1.6706    0.4246    1.8147 O   0  0  0  0  0  0  0  0  0  0  0  0
    0.7623    1.8232   -1.4794 O   0  0  0  0  0  0  0  0  0  0  0  0
    3.4263    1.8181   -1.3285 O   0  0  0  0  0  0  0  0  0  0  0  0
   -2.2948    3.1662    1.9993 O   0  0  0  0  0  0  0  0  0  0  0  0
   -1.5522    2.0117    0.1089 N   0  0  0  0  0  0  0  0  0  0  0  0
   -1.9991    4.2684    0.0053 N   0  0  0  0  0  0  0  0  0  0  0  0
   -1.5049   -1.7333   -0.0626 C   0  0  2  0  0  0  0  0  0  0  0  0
   -0.9503   -0.2955   -0.3567 C   0  0  2  0  0  0  0  0  0  0  0  0
   -3.0565   -1.9048   -0.2205 C   0  0  0  0  0  0  0  0  0  0  0  0
   -1.4583    0.1411   -1.7567 C   0  0  0  0  0  0  0  0  0  0  0  0
   -3.4795   -1.3763   -1.6127 C   0  0  0  0  0  0  0  0  0  0  0  0
   -0.9300   -2.2689    1.2591 C   0  0  0  0  0  0  0  0  0  0  0  0
   -2.9743    0.0268   -1.9160 C   0  0  0  0  0  0  0  0  0  0  0  0
    0.5862   -0.2845   -0.2653 C   0  0  0  0  0  0  0  0  0  0  0  0
    0.5846   -2.4176    1.1512 C   0  0  0  0  0  0  0  0  0  0  0  0
   -3.4360   -3.4066   -0.1778 C   0  0  0  0  0  0  0  0  0  0  0  0
   -3.8758   -1.2081    0.8826 C   0  0  0  0  0  0  0  0  0  0  0  0
    1.2803   -1.2621    0.4794 C   0  0  0  0  0  0  0  0  0  0  0  0
   -1.4277    0.7354    0.6505 C   0  0  0  0  0  0  0  0  0  0  0  0
    1.3362    0.7525   -0.8564 C   0  0  0  0  0  0  0  0  0  0  0  0
    2.6834   -1.2079    0.5712 C   0  0  0  0  0  0  0  0  0  0  0  0
    3.4025   -0.1848   -0.0397 C   0  0  0  0  0  0  0  0  0  0  0  0
    2.7277    0.7983   -0.7502 C   0  0  0  0  0  0  0  0  0  0  0  0
    4.8896   -0.1591    0.0866 C   0  0  0  0  0  0  0  0  0  0  0  0
   -1.9759    3.1438    0.8120 C   0  0  0  0  0  0  0  0  0  0  0  0
    5.3528   -0.0044    1.5471 C   0  0  0  0  0  0  0  0  0  0  0  0
    5.5542   -1.3961   -0.5454 C   0  0  0  0  0  0  0  0  0  0  0  0
   -1.0765   -2.3805   -0.8478 H   0  0  0  0  0  0  0  0  0  0  0  0
   -1.0122   -0.5568   -2.4841 H   0  0  0  0  0  0  0  0  0  0  0  0
   -1.1715    1.1066   -2.1664 H   0  0  0  0  0  0  0  0  0  0  0  0
   -4.5727   -1.3918   -1.7095 H   0  0  0  0  0  0  0  0  0  0  0  0
   -3.0964   -2.0519   -2.3899 H   0  0  0  0  0  0  0  0  0  0  0  0
   -1.3291   -3.2647    1.4799 H   0  0  0  0  0  0  0  0  0  0  0  0
   -1.1836   -1.6703    2.1336 H   0  0  0  0  0  0  0  0  0  0  0  0
   -3.4909    0.7609   -1.2897 H   0  0  0  0  0  0  0  0  0  0  0  0
   -3.2402    0.2758   -2.9510 H   0  0  0  0  0  0  0  0  0  0  0  0
    0.8115   -3.3235    0.5738 H   0  0  0  0  0  0  0  0  0  0  0  0
    0.9937   -2.5640    2.1584 H   0  0  0  0  0  0  0  0  0  0  0  0
   -4.4851   -3.5552   -0.4606 H   0  0  0  0  0  0  0  0  0  0  0  0
   -2.8234   -3.9925   -0.8721 H   0  0  0  0  0  0  0  0  0  0  0  0
   -3.3143   -3.8320    0.8233 H   0  0  0  0  0  0  0  0  0  0  0  0
   -4.9328   -1.4945    0.8098 H   0  0  0  0  0  0  0  0  0  0  0  0
   -3.8629   -0.1196    0.8055 H   0  0  0  0  0  0  0  0  0  0  0  0
   -3.5420   -1.4974    1.8838 H   0  0  0  0  0  0  0  0  0  0  0  0
    3.2008   -1.9834    1.1323 H   0  0  0  0  0  0  0  0  0  0  0  0
   -1.2062    2.2285   -0.8141 H   0  0  0  0  0  0  0  0  0  0  0  0
    5.2978    0.7058   -0.4504 H   0  0  0  0  0  0  0  0  0  0  0  0
    1.3083    2.6146   -1.3378 H   0  0  0  0  0  0  0  0  0  0  0  0
    2.9130    2.1753   -2.0723 H   0  0  0  0  0  0  0  0  0  0  0  0
    5.0788   -0.8703    2.1593 H   0  0  0  0  0  0  0  0  0  0  0  0
    6.4418    0.1044    1.5947 H   0  0  0  0  0  0  0  0  0  0  0  0
    4.9060    0.8853    2.0046 H   0  0  0  0  0  0  0  0  0  0  0  0
    5.2893   -2.3194   -0.0192 H   0  0  0  0  0  0  0  0  0  0  0  0
    5.2518   -1.5077   -1.5926 H   0  0  0  0  0  0  0  0  0  0  0  0
    6.6453   -1.3008   -0.5194 H   0  0  0  0  0  0  0  0  0  0  0  0
   -1.7369    4.2308   -0.9739 H   0  0  0  0  0  0  0  0  0  0  0  0
   -2.2851    5.1702    0.3716 H   0  0  0  0  0  0  0  0  0  0  0  0
  1 19  2  0  0  0  0
  2 20  1  0  0  0  0
  2 48  1  0  0  0  0
  3 23  1  0  0  0  0
  3 49  1  0  0  0  0
  4 25  2  0  0  0  0
  5 19  1  0  0  0  0
  5 25  1  0  0  0  0
  5 46  1  0  0  0  0
  6 25  1  0  0  0  0
  6 56  1  0  0  0  0
  6 57  1  0  0  0  0
  7  8  1  0  0  0  0
  7  9  1  0  0  0  0
  7 12  1  0  0  0  0
  7 28  1  0  0  0  0
  8 10  1  0  0  0  0
  8 14  1  0  0  0  0
  8 19  1  0  0  0  0
  9 11  1  0  0  0  0
  9 16  1  0  0  0  0
  9 17  1  0  0  0  0
 10 13  1  0  0  0  0
 10 29  1  0  0  0  0
 10 30  1  0  0  0  0
 11 13  1  0  0  0  0
 11 31  1  0  0  0  0
 11 32  1  0  0  0  0
 12 15  1  0  0  0  0
 12 33  1  0  0  0  0
 12 34  1  0  0  0  0
 13 35  1  0  0  0  0
 13 36  1  0  0  0  0
 14 18  1  0  0  0  0
 14 20  2  0  0  0  0
 15 18  1  0  0  0  0
 15 37  1  0  0  0  0
 15 38  1  0  0  0  0
 16 39  1  0  0  0  0
 16 40  1  0  0  0  0
 16 41  1  0  0  0  0
 17 42  1  0  0  0  0
 17 43  1  0  0  0  0
 17 44  1  0  0  0  0
 18 21  2  0  0  0  0
 20 23  1  0  0  0  0
 21 22  1  0  0  0  0
 21 45  1  0  0  0  0
 22 23  2  0  0  0  0
 22 24  1  0  0  0  0
 24 26  1  0  0  0  0
 24 27  1  0  0  0  0
 24 47  1  0  0  0  0
 26 50  1  0  0  0  0
 26 51  1  0  0  0  0
 26 52  1  0  0  0  0
 27 53  1  0  0  0  0
 27 54  1  0  0  0  0
 27 55  1  0  0  0  0
M  END
> <PUBCHEM_COMPOUND_CID>
155563682

> <PUBCHEM_CONFORMER_RMSD>
0.8

> <PUBCHEM_CONFORMER_DIVERSEORDER>
2
3
1
4

> <PUBCHEM_MMFF94_PARTIAL_CHARGES>
23
1 -0.57
14 -0.14
15 0.14
18 -0.14
19 0.57
2 -0.53
20 0.08
21 -0.15
22 -0.14
23 0.08
24 0.14
25 0.69
3 -0.53
4 -0.57
45 0.15
46 0.37
48 0.45
49 0.45
5 -0.49
56 0.37
57 0.37
6 -0.8
8 0.2

> <PUBCHEM_EFFECTIVE_ROTOR_COUNT>
5.2

> <PUBCHEM_PHARMACOPHORE_FEATURES>
11
1 1 acceptor
1 2 donor
1 3 donor
1 4 acceptor
1 5 donor
1 6 donor
3 24 26 27 hydrophobe
3 9 16 17 hydrophobe
6 14 18 20 21 22 23 rings
6 7 8 12 14 15 18 rings
6 7 8 9 10 11 13 rings

> <PUBCHEM_HEAVY_ATOM_COUNT>
27

> <PUBCHEM_ATOM_DEF_STEREO_COUNT>
2

> <PUBCHEM_ATOM_UDEF_STEREO_COUNT>
0

> <PUBCHEM_BOND_DEF_STEREO_COUNT>
0

> <PUBCHEM_BOND_UDEF_STEREO_COUNT>
0

> <PUBCHEM_ISOTOPIC_ATOM_COUNT>
0

> <PUBCHEM_COMPONENT_COUNT>
1

> <PUBCHEM_CACTVS_TAUTO_COUNT>
-1

> <PUBCHEM_CONFORMER_ID>
0945B6A200000002

> <PUBCHEM_MMFF94_ENERGY>
104.1583

> <PUBCHEM_FEATURE_SELFOVERLAP>
55.921

> <PUBCHEM_SHAPE_FINGERPRINT>
10863032 1 15719932731529062091
1100329 8 18410299129284359385
11115154 58 17985798585327138109
11315181 36 18334007299283342858
11578080 2 18122884676702066509
11640471 11 17768240224308041777
12035759 4 18261100859791797363
12173636 292 18340769226056713243
12403259 226 17828196924420856215
12403814 3 16773792636271648638
12788726 201 18267605630806435197
13004483 165 18341053037727644017
13027679 85 18265053720690674327
131258 38 16672796076701149051
13140716 1 18117566351611249026
13296909 8 18272369746122982224
13583140 156 17131823236818773126
14068700 675 18263072365982174726
14142880 1 18261670351133417225
14178342 30 18336826386445263410
14787075 74 17831579047608967844
14866123 147 18048595924489437026
14955137 171 18194134134030991355
15131766 46 16084509913816762892
15209294 21 18267862783926615832
15420108 30 17832703470015977128
15534591 1 18198903604374547537
16945 1 18343575252861364183
17349148 13 18261103115172023066
17980427 26 17190943178127689591
1813 80 17487904621148523199
18393751 57 17768785888019897418
18603816 31 13696686227263250584
192875 21 18336260240914705108
200 152 18336259145313332198
20510252 161 18262798587344018444
20775438 99 16682847889349416927
20832881 197 18193276515119198059
21033648 29 17417232279123937842
21304303 282 18051951668152752621
21339142 36 18338790234392622711
21731228 192 18050584944870762353
22112679 90 18057342758373088377
23419403 2 17981299486192801989
23558518 356 18336836281638885498
23559900 14 18191864737904533996
283562 15 18410004442465915995
312423 11 18261407667055468812
350125 39 18334305248910789952
352729 6 18115598187285404810
4015057 19 14634864267257983694
460360 51 17749952129524677610
463206 1 18049718813086849686
53917941 68 18194103145335295021
57527585 103 17241347814095634050
70251023 43 17702360996533318719
7164475 11 18412270553347540604
7471813 234 18198898308911980501
81228 2 18198931221447141265
9862522 239 17898574168127951780

> <PUBCHEM_SHAPE_MULTIPOLES>
522.21
8.58
3.66
1.66
11.65
3.01
-0.02
-3.12
-0.27
-4.08
1.18
-0.72
0.46
-1.16

> <PUBCHEM_SHAPE_SELFOVERLAP>
1119.427

> <PUBCHEM_SHAPE_VOLUME>
284.9

> <PUBCHEM_COORDINATE_TYPE>
2
5
10

$$$$
