155535609
  -OEChem-08012508303D

 60 62  0     1  0  0  0  0  0999 V2000
   -1.6879    0.6555    1.8498 O   0  0  0  0  0  0  0  0  0  0  0  0
    0.8083    1.6833   -1.5199 O   0  0  0  0  0  0  0  0  0  0  0  0
    3.4546    1.3573   -1.4195 O   0  0  0  0  0  0  0  0  0  0  0  0
    0.5000    4.2507    0.3728 O   0  0  0  0  0  0  0  0  0  0  0  0
   -1.4276    2.1597    0.0926 N   0  0  0  0  0  0  0  0  0  0  0  0
   -1.8425   -1.5501    0.0016 C   0  0  2  0  0  0  0  0  0  0  0  0
   -1.1243   -0.1948   -0.3280 C   0  0  2  0  0  0  0  0  0  0  0  0
   -3.4064   -1.5345   -0.1238 C   0  0  0  0  0  0  0  0  0  0  0  0
   -1.6049    0.2790   -1.7256 C   0  0  0  0  0  0  0  0  0  0  0  0
   -3.7914   -0.9795   -1.5168 C   0  0  0  0  0  0  0  0  0  0  0  0
   -1.3091   -2.1315    1.3214 C   0  0  0  0  0  0  0  0  0  0  0  0
   -3.1266    0.3471   -1.8541 C   0  0  0  0  0  0  0  0  0  0  0  0
    0.4039   -0.3689   -0.2660 C   0  0  0  0  0  0  0  0  0  0  0  0
    0.1738   -2.4645    1.1874 C   0  0  0  0  0  0  0  0  0  0  0  0
   -3.9639   -2.9782   -0.0476 C   0  0  0  0  0  0  0  0  0  0  0  0
   -4.1121   -0.7269    0.9824 C   0  0  0  0  0  0  0  0  0  0  0  0
    0.9900   -1.4122    0.4824 C   0  0  0  0  0  0  0  0  0  0  0  0
   -1.4521    0.9014    0.6698 C   0  0  0  0  0  0  0  0  0  0  0  0
    1.2613    0.5603   -0.8893 C   0  0  0  0  0  0  0  0  0  0  0  0
    2.3909   -1.5272    0.5466 C   0  0  0  0  0  0  0  0  0  0  0  0
    3.2156   -0.6083   -0.0956 C   0  0  0  0  0  0  0  0  0  0  0  0
    2.6500    0.4386   -0.8103 C   0  0  0  0  0  0  0  0  0  0  0  0
    4.6972   -0.7614    0.0019 C   0  0  0  0  0  0  0  0  0  0  0  0
   -1.6850    3.3718    0.8353 C   0  0  0  0  0  0  0  0  0  0  0  0
    5.1939   -2.0793   -0.6208 C   0  0  0  0  0  0  0  0  0  0  0  0
    5.2063   -0.6421    1.4505 C   0  0  0  0  0  0  0  0  0  0  0  0
   -0.4121    3.9548    1.4226 C   0  0  0  0  0  0  0  0  0  0  0  0
   -1.5121   -2.2563   -0.7801 H   0  0  0  0  0  0  0  0  0  0  0  0
   -1.2620   -0.4790   -2.4487 H   0  0  0  0  0  0  0  0  0  0  0  0
   -1.2133    1.1963   -2.1590 H   0  0  0  0  0  0  0  0  0  0  0  0
   -4.8803   -0.8638   -1.5926 H   0  0  0  0  0  0  0  0  0  0  0  0
   -3.5092   -1.7083   -2.2891 H   0  0  0  0  0  0  0  0  0  0  0  0
   -1.8215   -3.0674    1.5687 H   0  0  0  0  0  0  0  0  0  0  0  0
   -1.4700   -1.4904    2.1878 H   0  0  0  0  0  0  0  0  0  0  0  0
   -3.5378    1.1478   -1.2312 H   0  0  0  0  0  0  0  0  0  0  0  0
   -3.3820    0.6106   -2.8881 H   0  0  0  0  0  0  0  0  0  0  0  0
    0.2773   -3.3999    0.6218 H   0  0  0  0  0  0  0  0  0  0  0  0
    0.5832   -2.6441    2.1891 H   0  0  0  0  0  0  0  0  0  0  0  0
   -5.0290   -3.0027   -0.3075 H   0  0  0  0  0  0  0  0  0  0  0  0
   -3.4416   -3.6445   -0.7432 H   0  0  0  0  0  0  0  0  0  0  0  0
   -3.8733   -3.4003    0.9582 H   0  0  0  0  0  0  0  0  0  0  0  0
   -3.9650    0.3503    0.8882 H   0  0  0  0  0  0  0  0  0  0  0  0
   -5.1975   -0.8811    0.9332 H   0  0  0  0  0  0  0  0  0  0  0  0
   -3.7959   -1.0412    1.9818 H   0  0  0  0  0  0  0  0  0  0  0  0
    2.8224   -2.3513    1.1113 H   0  0  0  0  0  0  0  0  0  0  0  0
   -1.0329    2.3266   -0.8200 H   0  0  0  0  0  0  0  0  0  0  0  0
    5.1958    0.0395   -0.5577 H   0  0  0  0  0  0  0  0  0  0  0  0
   -2.1331    4.0773    0.1277 H   0  0  0  0  0  0  0  0  0  0  0  0
   -2.4079    3.1630    1.6304 H   0  0  0  0  0  0  0  0  0  0  0  0
    1.4446    2.4069   -1.3933 H   0  0  0  0  0  0  0  0  0  0  0  0
    2.9702    1.7688   -2.1545 H   0  0  0  0  0  0  0  0  0  0  0  0
    4.8303   -2.9556   -0.0736 H   0  0  0  0  0  0  0  0  0  0  0  0
    4.8583   -2.1691   -1.6600 H   0  0  0  0  0  0  0  0  0  0  0  0
    6.2888   -2.1166   -0.6172 H   0  0  0  0  0  0  0  0  0  0  0  0
    4.8424   -1.4590    2.0828 H   0  0  0  0  0  0  0  0  0  0  0  0
    6.3012   -0.6653    1.4755 H   0  0  0  0  0  0  0  0  0  0  0  0
    4.8800    0.3021    1.9007 H   0  0  0  0  0  0  0  0  0  0  0  0
   -0.6311    4.8787    1.9664 H   0  0  0  0  0  0  0  0  0  0  0  0
    0.0671    3.2445    2.1041 H   0  0  0  0  0  0  0  0  0  0  0  0
    1.3008    4.6167    0.7855 H   0  0  0  0  0  0  0  0  0  0  0  0
  1 18  2  0  0  0  0
  2 19  1  0  0  0  0
  2 50  1  0  0  0  0
  3 22  1  0  0  0  0
  3 51  1  0  0  0  0
  4 27  1  0  0  0  0
  4 60  1  0  0  0  0
  5 18  1  0  0  0  0
  5 24  1  0  0  0  0
  5 46  1  0  0  0  0
  6  7  1  0  0  0  0
  6  8  1  0  0  0  0
  6 11  1  0  0  0  0
  6 28  1  0  0  0  0
  7  9  1  0  0  0  0
  7 13  1  0  0  0  0
  7 18  1  0  0  0  0
  8 10  1  0  0  0  0
  8 15  1  0  0  0  0
  8 16  1  0  0  0  0
  9 12  1  0  0  0  0
  9 29  1  0  0  0  0
  9 30  1  0  0  0  0
 10 12  1  0  0  0  0
 10 31  1  0  0  0  0
 10 32  1  0  0  0  0
 11 14  1  0  0  0  0
 11 33  1  0  0  0  0
 11 34  1  0  0  0  0
 12 35  1  0  0  0  0
 12 36  1  0  0  0  0
 13 17  1  0  0  0  0
 13 19  2  0  0  0  0
 14 17  1  0  0  0  0
 14 37  1  0  0  0  0
 14 38  1  0  0  0  0
 15 39  1  0  0  0  0
 15 40  1  0  0  0  0
 15 41  1  0  0  0  0
 16 42  1  0  0  0  0
 16 43  1  0  0  0  0
 16 44  1  0  0  0  0
 17 20  2  0  0  0  0
 19 22  1  0  0  0  0
 20 21  1  0  0  0  0
 20 45  1  0  0  0  0
 21 22  2  0  0  0  0
 21 23  1  0  0  0  0
 23 25  1  0  0  0  0
 23 26  1  0  0  0  0
 23 47  1  0  0  0  0
 24 27  1  0  0  0  0
 24 48  1  0  0  0  0
 24 49  1  0  0  0  0
 25 52  1  0  0  0  0
 25 53  1  0  0  0  0
 25 54  1  0  0  0  0
 26 55  1  0  0  0  0
 26 56  1  0  0  0  0
 26 57  1  0  0  0  0
 27 58  1  0  0  0  0
 27 59  1  0  0  0  0
M  END
> <PUBCHEM_COMPOUND_CID>
155535609

> <PUBCHEM_CONFORMER_RMSD>
0.8

> <PUBCHEM_CONFORMER_DIVERSEORDER>
6
4
10
9
1
8
2
5
3
7

> <PUBCHEM_MMFF94_PARTIAL_CHARGES>
22
1 -0.57
13 -0.14
14 0.14
17 -0.14
18 0.57
19 0.08
2 -0.53
20 -0.15
21 -0.14
22 0.08
23 0.14
24 0.3
27 0.28
3 -0.53
4 -0.68
45 0.15
46 0.37
5 -0.73
50 0.45
51 0.45
60 0.4
7 0.2

> <PUBCHEM_EFFECTIVE_ROTOR_COUNT>
6.2

> <PUBCHEM_PHARMACOPHORE_FEATURES>
11
1 1 acceptor
1 2 donor
1 3 donor
1 4 acceptor
1 4 donor
1 5 donor
3 23 25 26 hydrophobe
3 8 15 16 hydrophobe
6 13 17 19 20 21 22 rings
6 6 7 11 13 14 17 rings
6 6 7 8 9 10 12 rings

> <PUBCHEM_HEAVY_ATOM_COUNT>
27

> <PUBCHEM_ATOM_DEF_STEREO_COUNT>
2

> <PUBCHEM_ATOM_UDEF_STEREO_COUNT>
0

> <PUBCHEM_BOND_DEF_STEREO_COUNT>
0

> <PUBCHEM_BOND_UDEF_STEREO_COUNT>
0

> <PUBCHEM_ISOTOPIC_ATOM_COUNT>
0

> <PUBCHEM_COMPONENT_COUNT>
1

> <PUBCHEM_CACTVS_TAUTO_COUNT>
-1

> <PUBCHEM_CONFORMER_ID>
094548F900000006

> <PUBCHEM_MMFF94_ENERGY>
96.2085

> <PUBCHEM_FEATURE_SELFOVERLAP>
55.871

> <PUBCHEM_SHAPE_FINGERPRINT>
10863032 1 15791999095953486011
1100329 8 18411143502511515945
11045515 52 18335135410270564365
11115154 58 17984668227176040757
11315181 36 18260544499273074690
11578080 2 18117544348852572461
12104220 1 18411415091031900890
12166972 35 18040430031975957484
12293681 160 17909239431286787165
12403259 226 18116991294139543815
12403814 3 16845564327163626454
12553582 1 18341626943873521140
12788726 201 18267327415625512700
13009979 54 18336275552684371860
13027679 85 18335986462740915399
131258 38 17034776156625929603
13140716 1 18409459089051184416
13583140 156 17130973271386318486
13965767 371 17194363320245811497
14068700 675 18335134319438327278
14142880 1 18117275857049865169
14178342 30 18192993721386846618
14787075 74 18118403084064562278
14866123 147 17617093604160644410
14955137 171 18338531836444395123
15420108 30 17401203370279884312
16945 1 18341884199899155207
17349148 13 18261106379283987922
1813 80 17775007946231439157
18393751 57 17627762505077087290
192875 21 18408319999579272446
19930381 70 18123750013310770680
200 152 18335698360076195047
20510252 161 18334576854041825520
20642791 105 18188481385558833485
20775438 99 17115196709320417871
20832881 197 18337393854936499163
21029758 11 18409725196703442446
21197605 99 16745931784951398109
21304303 282 17834370359851115485
21339142 36 18410849975898244383
22112679 90 18201173108349531345
22182313 1 17250041893787927635
23175994 123 18340763827678389791
23419403 2 18121475093973006813
23559900 14 18263925608965481604
2748010 2 16747351838266093718
283562 15 18336541625391530890
3380486 145 17829345909397003242
352729 6 18187660132056631794
392239 28 18411691115273393184
460360 51 17533219657274502626
463206 1 18265612276302793143
53917941 68 18120357775263310245
57527585 103 17169577145379492466
6004065 56 18126266778215303647
7164475 11 18340776961656641502
7471813 234 18200023074973928157
81228 2 18130518426813995369
9709674 26 17823139093402155254

> <PUBCHEM_SHAPE_MULTIPOLES>
527.19
8.3
3.89
1.63
8.41
4.59
-0.18
-5.68
-0.71
-1.74
1.68
-0.52
0.34
-0.52

> <PUBCHEM_SHAPE_SELFOVERLAP>
1119.619

> <PUBCHEM_SHAPE_VOLUME>
290.9

> <PUBCHEM_COORDINATE_TYPE>
2
5
10

$$$$
